version 2
run Default-0-20220203-19:19:39-13519
attr configname Default
attr datetime 20220203-19:19:39
attr experiment Default
attr inifile omnetpp.ini
attr iterationvars ""
attr iterationvarsf ""
attr measurement ""
attr network tlExample
attr processid 13519
attr repetition 0
attr replication #0
attr resultdir results
attr runnumber 0
attr seedset 0
param *.playgroundSizeX 5000m
param *.playgroundSizeY 5000m
param *.playgroundSizeZ 50m
param *.annotations.draw true
param *.obstacles.obstacles "xmldoc(\"config.xml\", \"//AnalogueModel[@type='SimpleObstacleShadowing']/obstacles\")"
param *.manager.updateInterval 0.1s
param *.manager.host "\"localhost\""
param *.manager.port 9999
param *.manager.autoShutdown true
param *.manager.launchConfig "xmldoc(\"traffic_light_example.launchd.xml\")"
param *.rsu[0].mobility.x 825
param *.rsu[0].mobility.y 825
param *.rsu[0].mobility.z 3
param *.rsu[1].mobility.x 1625
param *.rsu[1].mobility.y 825
param *.rsu[1].mobility.z 3
param *.rsu[2].mobility.x 2425
param *.rsu[2].mobility.y 825
param *.rsu[2].mobility.z 3
param *.rsu[3].mobility.x 3225
param *.rsu[3].mobility.y 825
param *.rsu[3].mobility.z 3
param *.rsu[4].mobility.x 825
param *.rsu[4].mobility.y 1625
param *.rsu[4].mobility.z 3
param *.rsu[5].mobility.x 1625
param *.rsu[5].mobility.y 1625
param *.rsu[5].mobility.z 3
param *.rsu[6].mobility.x 2425
param *.rsu[6].mobility.y 1625
param *.rsu[6].mobility.z 3
param *.rsu[7].mobility.x 3225
param *.rsu[7].mobility.y 1625
param *.rsu[7].mobility.z 3
param *.rsu[8].mobility.x 825
param *.rsu[8].mobility.y 2425
param *.rsu[8].mobility.z 3
param *.rsu[9].mobility.x 1625
param *.rsu[9].mobility.y 2425
param *.rsu[9].mobility.z 3
param *.rsu[10].mobility.x 2425
param *.rsu[10].mobility.y 2425
param *.rsu[10].mobility.z 3
param *.rsu[11].mobility.x 3225
param *.rsu[11].mobility.y 2425
param *.rsu[11].mobility.z 3
param *.rsu[12].mobility.x 825
param *.rsu[12].mobility.y 3225
param *.rsu[12].mobility.z 3
param *.rsu[13].mobility.x 1625
param *.rsu[13].mobility.y 3225
param *.rsu[13].mobility.z 3
param *.rsu[14].mobility.x 2425
param *.rsu[14].mobility.y 3225
param *.rsu[14].mobility.z 3
param *.rsu[15].mobility.x 3225
param *.rsu[15].mobility.y 3225
param *.rsu[15].mobility.z 3
param *.rsu[*].applType "\"TlRSU\""
param *.rsu[*].appl.headerLength "80 bit"
param *.rsu[*].appl.sendBeacons false
param *.rsu[*].appl.dataOnSch true
param *.rsu[*].appl.beaconInterval 1s
param *.rsu[*].appl.beaconUserPriority 7
param *.rsu[*].appl.dataUserPriority 5
param *.rsu[*].nic.phy80211p.antennaOffsetZ "0 m"
param *.connectionManager.sendDirect true
param *.connectionManager.maxInterfDist 2600m
param *.connectionManager.drawMaxIntfDist false
param *.**.nic.mac1609_4.useServiceChannel true
param *.**.nic.mac1609_4.txPower 20mW
param *.**.nic.mac1609_4.bitrate 6Mbps
param *.**.nic.phy80211p.minPowerLevel -110dBm
param *.**.nic.phy80211p.useNoiseFloor true
param *.**.nic.phy80211p.noiseFloor -98dBm
param *.**.nic.phy80211p.decider "xmldoc(\"config.xml\")"
param *.**.nic.phy80211p.analogueModels "xmldoc(\"config.xml\")"
param *.**.nic.phy80211p.usePropagationDelay true
param *.**.nic.phy80211p.antenna "xmldoc(\"antenna.xml\", \"/root/Antenna[@id='monopole']\")"
param *.node[*].nic.phy80211p.antennaOffsetY "0 m"
param *.node[*].nic.phy80211p.antennaOffsetZ "1.895 m"
param *.node[*].applType "\"TlVehicle\""
param *.node[*].appl.headerLength "80 bit"
param *.node[*].appl.sendBeacons false
param *.node[*].appl.dataOnSch true
param *.node[*].appl.beaconInterval 1s
param *.node[*].veinsmobility.x 0
param *.node[*].veinsmobility.y 0
param *.node[*].veinsmobility.z 0
param *.node[*].veinsmobility.setHostSpeed true
param *.node[*0].veinsmobility.accidentCount 0
param *.node[*0].veinsmobility.accidentStart 73s
param *.node[*0].veinsmobility.accidentDuration 50s

scalar tlExample.node[50].appl generatedWSMs 77
scalar tlExample.node[50].appl receivedWSMs 1082
scalar tlExample.node[50].appl generatedBSMs 0
scalar tlExample.node[50].appl receivedBSMs 0
scalar tlExample.node[50].appl generatedWSAs 0
scalar tlExample.node[50].appl receivedWSAs 43
scalar tlExample.node[50].nic.phy80211p busyTime 0.0051601302931593
scalar tlExample.node[50].nic.mac1609_4 ReceivedUnicastPackets 0
scalar tlExample.node[50].nic.mac1609_4 ReceivedBroadcasts 1125
scalar tlExample.node[50].nic.mac1609_4 SentPackets 77
scalar tlExample.node[50].nic.mac1609_4 SentAcknowledgements 0
scalar tlExample.node[50].nic.mac1609_4 RetriesExceeded 0
scalar tlExample.node[50].nic.mac1609_4 SNIRLostPackets 5269
scalar tlExample.node[50].nic.mac1609_4 RXTXLostPackets 2
scalar tlExample.node[50].nic.mac1609_4 TotalLostPackets 5271
scalar tlExample.node[50].nic.mac1609_4 DroppedPacketsInMac 0
scalar tlExample.node[50].nic.mac1609_4 TooLittleTime 0
scalar tlExample.node[50].nic.mac1609_4 TimesIntoBackoff 87
scalar tlExample.node[50].nic.mac1609_4 SlotsBackoff 138
scalar tlExample.node[50].nic.mac1609_4 NumInternalContention 0
scalar tlExample.node[50].nic.mac1609_4 totalBusyTime 0.318445
scalar tlExample.node[50].nic.mac1609_4 retriesExceeded:count 0
attr source org_car2x_veins_modules_mac_sigRetriesExceeded
scalar tlExample.node[50].nic.mac1609_4 sentAcks:count 0
attr source org_car2x_veins_modules_mac_sigSentAck
scalar tlExample.node[50].nic.mac1609_4 sentPackets:count 77
attr source org_car2x_veins_modules_mac_sigSentPacket
scalar tlExample.node[50].nic.mac1609_4 collisions:count 0
attr source org_car2x_veins_modules_mac_sigCollision
scalar tlExample.node[50].nic.mac1609_4 channelBusy:timeavg 0.0051864006514655
attr source org_car2x_veins_modules_mac_sigChannelBusy
scalar tlExample.node[50].veinsmobility startTime 7.5
scalar tlExample.node[50].veinsmobility totalTime 61.3
scalar tlExample.node[50].veinsmobility stopTime 68.9
scalar tlExample.node[50].veinsmobility minSpeed 0.34931881356752
scalar tlExample.node[50].veinsmobility maxSpeed 13.889347210722
scalar tlExample.node[50].veinsmobility totalDistance 780.16203811065
scalar tlExample.node[50].veinsmobility totalCO2Emission 205.38582935487
scalar tlExample.node[55].appl generatedWSMs 78
scalar tlExample.node[55].appl receivedWSMs 1131
scalar tlExample.node[55].appl generatedBSMs 0
scalar tlExample.node[55].appl receivedBSMs 0
scalar tlExample.node[55].appl generatedWSAs 0
scalar tlExample.node[55].appl receivedWSAs 46
scalar tlExample.node[55].nic.phy80211p busyTime 0.0047816774193546
scalar tlExample.node[55].nic.mac1609_4 ReceivedUnicastPackets 0
scalar tlExample.node[55].nic.mac1609_4 ReceivedBroadcasts 1177
scalar tlExample.node[55].nic.mac1609_4 SentPackets 78
scalar tlExample.node[55].nic.mac1609_4 SentAcknowledgements 0
scalar tlExample.node[55].nic.mac1609_4 RetriesExceeded 0
scalar tlExample.node[55].nic.mac1609_4 SNIRLostPackets 4815
scalar tlExample.node[55].nic.mac1609_4 RXTXLostPackets 0
scalar tlExample.node[55].nic.mac1609_4 TotalLostPackets 4815
scalar tlExample.node[55].nic.mac1609_4 DroppedPacketsInMac 0
scalar tlExample.node[55].nic.mac1609_4 TooLittleTime 0
scalar tlExample.node[55].nic.mac1609_4 TimesIntoBackoff 88
scalar tlExample.node[55].nic.mac1609_4 SlotsBackoff 120
scalar tlExample.node[55].nic.mac1609_4 NumInternalContention 0
scalar tlExample.node[55].nic.mac1609_4 totalBusyTime 0.297694
scalar tlExample.node[55].nic.mac1609_4 retriesExceeded:count 0
attr source org_car2x_veins_modules_mac_sigRetriesExceeded
scalar tlExample.node[55].nic.mac1609_4 sentAcks:count 0
attr source org_car2x_veins_modules_mac_sigSentAck
scalar tlExample.node[55].nic.mac1609_4 sentPackets:count 78
attr source org_car2x_veins_modules_mac_sigSentPacket
scalar tlExample.node[55].nic.mac1609_4 collisions:count 0
attr source org_car2x_veins_modules_mac_sigCollision
scalar tlExample.node[55].nic.mac1609_4 channelBusy:timeavg 0.004801516129032
attr source org_car2x_veins_modules_mac_sigChannelBusy
scalar tlExample.node[55].veinsmobility startTime 7.6
scalar tlExample.node[55].veinsmobility totalTime 61.9
scalar tlExample.node[55].veinsmobility stopTime 69.6
scalar tlExample.node[55].veinsmobility minSpeed 0.31671654501115
scalar tlExample.node[55].veinsmobility maxSpeed 13.889257260852
scalar tlExample.node[55].veinsmobility totalDistance 779.95328953344
scalar tlExample.node[55].veinsmobility totalCO2Emission 213.88579617264
scalar tlExample.node[0].appl generatedWSMs 102
scalar tlExample.node[0].appl receivedWSMs 1239
scalar tlExample.node[0].appl generatedBSMs 0
scalar tlExample.node[0].appl receivedBSMs 0
scalar tlExample.node[0].appl generatedWSAs 0
scalar tlExample.node[0].appl receivedWSAs 56
scalar tlExample.node[0].nic.phy80211p busyTime 0.0050382743928358
scalar tlExample.node[0].nic.mac1609_4 ReceivedUnicastPackets 0
scalar tlExample.node[0].nic.mac1609_4 ReceivedBroadcasts 1295
scalar tlExample.node[0].nic.mac1609_4 SentPackets 102
scalar tlExample.node[0].nic.mac1609_4 SentAcknowledgements 0
scalar tlExample.node[0].nic.mac1609_4 RetriesExceeded 0
scalar tlExample.node[0].nic.mac1609_4 SNIRLostPackets 6019
scalar tlExample.node[0].nic.mac1609_4 RXTXLostPackets 4
scalar tlExample.node[0].nic.mac1609_4 TotalLostPackets 6023
scalar tlExample.node[0].nic.mac1609_4 DroppedPacketsInMac 0
scalar tlExample.node[0].nic.mac1609_4 TooLittleTime 0
scalar tlExample.node[0].nic.mac1609_4 TimesIntoBackoff 117
scalar tlExample.node[0].nic.mac1609_4 SlotsBackoff 145
scalar tlExample.node[0].nic.mac1609_4 NumInternalContention 0
scalar tlExample.node[0].nic.mac1609_4 totalBusyTime 0.364646
scalar tlExample.node[0].nic.mac1609_4 retriesExceeded:count 0
attr source org_car2x_veins_modules_mac_sigRetriesExceeded
scalar tlExample.node[0].nic.mac1609_4 sentAcks:count 0
attr source org_car2x_veins_modules_mac_sigSentAck
scalar tlExample.node[0].nic.mac1609_4 sentPackets:count 102
attr source org_car2x_veins_modules_mac_sigSentPacket
scalar tlExample.node[0].nic.mac1609_4 collisions:count 0
attr source org_car2x_veins_modules_mac_sigCollision
scalar tlExample.node[0].nic.mac1609_4 channelBusy:timeavg 0.0050583331614813
attr source org_car2x_veins_modules_mac_sigChannelBusy
scalar tlExample.node[0].veinsmobility startTime 0.1
scalar tlExample.node[0].veinsmobility totalTime 72
scalar tlExample.node[0].veinsmobility stopTime 72.188173783553
scalar tlExample.node[0].veinsmobility minSpeed 0.32034618919599
scalar tlExample.node[0].veinsmobility maxSpeed 13.889702171935
scalar tlExample.node[0].veinsmobility totalDistance 936.78664099623
scalar tlExample.node[0].veinsmobility totalCO2Emission 255.81367414007
scalar tlExample.node[27].appl generatedWSMs 84
scalar tlExample.node[27].appl receivedWSMs 1245
scalar tlExample.node[27].appl generatedBSMs 0
scalar tlExample.node[27].appl receivedBSMs 0
scalar tlExample.node[27].appl generatedWSAs 0
scalar tlExample.node[27].appl receivedWSAs 51
scalar tlExample.node[27].nic.phy80211p busyTime 0.0051356076950815
scalar tlExample.node[27].nic.mac1609_4 ReceivedUnicastPackets 0
scalar tlExample.node[27].nic.mac1609_4 ReceivedBroadcasts 1296
scalar tlExample.node[27].nic.mac1609_4 SentPackets 84
scalar tlExample.node[27].nic.mac1609_4 SentAcknowledgements 0
scalar tlExample.node[27].nic.mac1609_4 RetriesExceeded 0
scalar tlExample.node[27].nic.mac1609_4 SNIRLostPackets 5897
scalar tlExample.node[27].nic.mac1609_4 RXTXLostPackets 3
scalar tlExample.node[27].nic.mac1609_4 TotalLostPackets 5900
scalar tlExample.node[27].nic.mac1609_4 DroppedPacketsInMac 0
scalar tlExample.node[27].nic.mac1609_4 TooLittleTime 0
scalar tlExample.node[27].nic.mac1609_4 TimesIntoBackoff 97
scalar tlExample.node[27].nic.mac1609_4 SlotsBackoff 115
scalar tlExample.node[27].nic.mac1609_4 NumInternalContention 0
scalar tlExample.node[27].nic.mac1609_4 totalBusyTime 0.357668
scalar tlExample.node[27].nic.mac1609_4 retriesExceeded:count 0
attr source org_car2x_veins_modules_mac_sigRetriesExceeded
scalar tlExample.node[27].nic.mac1609_4 sentAcks:count 0
attr source org_car2x_veins_modules_mac_sigSentAck
scalar tlExample.node[27].nic.mac1609_4 sentPackets:count 84
attr source org_car2x_veins_modules_mac_sigSentPacket
scalar tlExample.node[27].nic.mac1609_4 collisions:count 0
attr source org_car2x_veins_modules_mac_sigCollision
scalar tlExample.node[27].nic.mac1609_4 channelBusy:timeavg 0.005147178009226
attr source org_car2x_veins_modules_mac_sigChannelBusy
scalar tlExample.node[27].veinsmobility startTime 2.7
scalar tlExample.node[27].veinsmobility totalTime 69.4
scalar tlExample.node[27].veinsmobility stopTime 72.188173783553
scalar tlExample.node[27].veinsmobility minSpeed 0.32206836093799
scalar tlExample.node[27].veinsmobility maxSpeed 13.889197373074
scalar tlExample.node[27].veinsmobility totalDistance 902.18766814479
scalar tlExample.node[27].veinsmobility totalCO2Emission 244.26416605351
scalar tlExample.node[46].appl generatedWSMs 90
scalar tlExample.node[46].appl receivedWSMs 1218
scalar tlExample.node[46].appl generatedBSMs 0
scalar tlExample.node[46].appl receivedBSMs 0
scalar tlExample.node[46].appl generatedWSAs 0
scalar tlExample.node[46].appl receivedWSAs 51
scalar tlExample.node[46].nic.phy80211p busyTime 0.0052313453147003
scalar tlExample.node[46].nic.mac1609_4 ReceivedUnicastPackets 0
scalar tlExample.node[46].nic.mac1609_4 ReceivedBroadcasts 1269
scalar tlExample.node[46].nic.mac1609_4 SentPackets 90
scalar tlExample.node[46].nic.mac1609_4 SentAcknowledgements 0
scalar tlExample.node[46].nic.mac1609_4 RetriesExceeded 0
scalar tlExample.node[46].nic.mac1609_4 SNIRLostPackets 5779
scalar tlExample.node[46].nic.mac1609_4 RXTXLostPackets 1
scalar tlExample.node[46].nic.mac1609_4 TotalLostPackets 5780
scalar tlExample.node[46].nic.mac1609_4 DroppedPacketsInMac 0
scalar tlExample.node[46].nic.mac1609_4 TooLittleTime 0
scalar tlExample.node[46].nic.mac1609_4 TimesIntoBackoff 99
scalar tlExample.node[46].nic.mac1609_4 SlotsBackoff 99
scalar tlExample.node[46].nic.mac1609_4 NumInternalContention 0
scalar tlExample.node[46].nic.mac1609_4 totalBusyTime 0.350586
scalar tlExample.node[46].nic.mac1609_4 retriesExceeded:count 0
attr source org_car2x_veins_modules_mac_sigRetriesExceeded
scalar tlExample.node[46].nic.mac1609_4 sentAcks:count 0
attr source org_car2x_veins_modules_mac_sigSentAck
scalar tlExample.node[46].nic.mac1609_4 sentPackets:count 90
attr source org_car2x_veins_modules_mac_sigSentPacket
scalar tlExample.node[46].nic.mac1609_4 collisions:count 0
attr source org_car2x_veins_modules_mac_sigCollision
scalar tlExample.node[46].nic.mac1609_4 channelBusy:timeavg 0.0052492227312002
attr source org_car2x_veins_modules_mac_sigChannelBusy
scalar tlExample.node[46].veinsmobility startTime 5.4
scalar tlExample.node[46].veinsmobility totalTime 66.7
scalar tlExample.node[46].veinsmobility stopTime 72.188173783553
scalar tlExample.node[46].veinsmobility minSpeed 0
scalar tlExample.node[46].veinsmobility maxSpeed 13.889846474326
scalar tlExample.node[46].veinsmobility totalDistance 794.02992919645
scalar tlExample.node[46].veinsmobility totalCO2Emission 222.3279332316
scalar tlExample.node[61].appl generatedWSMs 77
scalar tlExample.node[61].appl receivedWSMs 1216
scalar tlExample.node[61].appl generatedBSMs 0
scalar tlExample.node[61].appl receivedBSMs 0
scalar tlExample.node[61].appl generatedWSAs 0
scalar tlExample.node[61].appl receivedWSAs 48
scalar tlExample.node[61].nic.phy80211p busyTime 0.0053424444930779
scalar tlExample.node[61].nic.mac1609_4 ReceivedUnicastPackets 0
scalar tlExample.node[61].nic.mac1609_4 ReceivedBroadcasts 1264
scalar tlExample.node[61].nic.mac1609_4 SentPackets 77
scalar tlExample.node[61].nic.mac1609_4 SentAcknowledgements 0
scalar tlExample.node[61].nic.mac1609_4 RetriesExceeded 0
scalar tlExample.node[61].nic.mac1609_4 SNIRLostPackets 5673
scalar tlExample.node[61].nic.mac1609_4 RXTXLostPackets 0
scalar tlExample.node[61].nic.mac1609_4 TotalLostPackets 5673
scalar tlExample.node[61].nic.mac1609_4 DroppedPacketsInMac 0
scalar tlExample.node[61].nic.mac1609_4 TooLittleTime 0
scalar tlExample.node[61].nic.mac1609_4 TimesIntoBackoff 83
scalar tlExample.node[61].nic.mac1609_4 SlotsBackoff 132
scalar tlExample.node[61].nic.mac1609_4 NumInternalContention 0
scalar tlExample.node[61].nic.mac1609_4 totalBusyTime 0.344109
scalar tlExample.node[61].nic.mac1609_4 retriesExceeded:count 0
attr source org_car2x_veins_modules_mac_sigRetriesExceeded
scalar tlExample.node[61].nic.mac1609_4 sentAcks:count 0
attr source org_car2x_veins_modules_mac_sigSentAck
scalar tlExample.node[61].nic.mac1609_4 sentPackets:count 77
attr source org_car2x_veins_modules_mac_sigSentPacket
scalar tlExample.node[61].nic.mac1609_4 collisions:count 0
attr source org_car2x_veins_modules_mac_sigCollision
scalar tlExample.node[61].nic.mac1609_4 channelBusy:timeavg 0.0053526018822456
attr source org_car2x_veins_modules_mac_sigChannelBusy
scalar tlExample.node[61].veinsmobility startTime 7.9
scalar tlExample.node[61].veinsmobility totalTime 64.2
scalar tlExample.node[61].veinsmobility stopTime 72.188173783553
scalar tlExample.node[61].veinsmobility minSpeed 0.31717474685633
scalar tlExample.node[61].veinsmobility maxSpeed 13.889295826827
scalar tlExample.node[61].veinsmobility totalDistance 782.58794601614
scalar tlExample.node[61].veinsmobility totalCO2Emission 212.40583959442
scalar tlExample.node[77].appl generatedWSMs 87
scalar tlExample.node[77].appl receivedWSMs 1174
scalar tlExample.node[77].appl generatedBSMs 0
scalar tlExample.node[77].appl receivedBSMs 0
scalar tlExample.node[77].appl generatedWSAs 0
scalar tlExample.node[77].appl receivedWSAs 45
scalar tlExample.node[77].nic.phy80211p busyTime 0.0054534707754977
scalar tlExample.node[77].nic.mac1609_4 ReceivedUnicastPackets 0
scalar tlExample.node[77].nic.mac1609_4 ReceivedBroadcasts 1219
scalar tlExample.node[77].nic.mac1609_4 SentPackets 87
scalar tlExample.node[77].nic.mac1609_4 SentAcknowledgements 0
scalar tlExample.node[77].nic.mac1609_4 RetriesExceeded 0
scalar tlExample.node[77].nic.mac1609_4 SNIRLostPackets 5592
scalar tlExample.node[77].nic.mac1609_4 RXTXLostPackets 1
scalar tlExample.node[77].nic.mac1609_4 TotalLostPackets 5593
scalar tlExample.node[77].nic.mac1609_4 DroppedPacketsInMac 0
scalar tlExample.node[77].nic.mac1609_4 TooLittleTime 0
scalar tlExample.node[77].nic.mac1609_4 TimesIntoBackoff 92
scalar tlExample.node[77].nic.mac1609_4 SlotsBackoff 137
scalar tlExample.node[77].nic.mac1609_4 NumInternalContention 0
scalar tlExample.node[77].nic.mac1609_4 totalBusyTime 0.338343
scalar tlExample.node[77].nic.mac1609_4 retriesExceeded:count 0
attr source org_car2x_veins_modules_mac_sigRetriesExceeded
scalar tlExample.node[77].nic.mac1609_4 sentAcks:count 0
attr source org_car2x_veins_modules_mac_sigSentAck
scalar tlExample.node[77].nic.mac1609_4 sentPackets:count 87
attr source org_car2x_veins_modules_mac_sigSentPacket
scalar tlExample.node[77].nic.mac1609_4 collisions:count 0
attr source org_car2x_veins_modules_mac_sigCollision
scalar tlExample.node[77].nic.mac1609_4 channelBusy:timeavg 0.0054758536995317
attr source org_car2x_veins_modules_mac_sigChannelBusy
scalar tlExample.node[77].veinsmobility startTime 10.4
scalar tlExample.node[77].veinsmobility totalTime 61.7
scalar tlExample.node[77].veinsmobility stopTime 72.188173783553
scalar tlExample.node[77].veinsmobility minSpeed 0.33488374163746
scalar tlExample.node[77].veinsmobility maxSpeed 13.889095483753
scalar tlExample.node[77].veinsmobility totalDistance 766.1487608142
scalar tlExample.node[77].veinsmobility totalCO2Emission 207.10789907677
scalar tlExample.node[94].appl generatedWSMs 80
scalar tlExample.node[94].appl receivedWSMs 1155
scalar tlExample.node[94].appl generatedBSMs 0
scalar tlExample.node[94].appl receivedBSMs 0
scalar tlExample.node[94].appl generatedWSAs 0
scalar tlExample.node[94].appl receivedWSAs 44
scalar tlExample.node[94].nic.phy80211p busyTime 0.0055821962206205
scalar tlExample.node[94].nic.mac1609_4 ReceivedUnicastPackets 0
scalar tlExample.node[94].nic.mac1609_4 ReceivedBroadcasts 1199
scalar tlExample.node[94].nic.mac1609_4 SentPackets 80
scalar tlExample.node[94].nic.mac1609_4 SentAcknowledgements 0
scalar tlExample.node[94].nic.mac1609_4 RetriesExceeded 0
scalar tlExample.node[94].nic.mac1609_4 SNIRLostPackets 5488
scalar tlExample.node[94].nic.mac1609_4 RXTXLostPackets 2
scalar tlExample.node[94].nic.mac1609_4 TotalLostPackets 5490
scalar tlExample.node[94].nic.mac1609_4 DroppedPacketsInMac 0
scalar tlExample.node[94].nic.mac1609_4 TooLittleTime 0
scalar tlExample.node[94].nic.mac1609_4 TimesIntoBackoff 88
scalar tlExample.node[94].nic.mac1609_4 SlotsBackoff 126
scalar tlExample.node[94].nic.mac1609_4 NumInternalContention 0
scalar tlExample.node[94].nic.mac1609_4 totalBusyTime 0.331632
scalar tlExample.node[94].nic.mac1609_4 retriesExceeded:count 0
attr source org_car2x_veins_modules_mac_sigRetriesExceeded
scalar tlExample.node[94].nic.mac1609_4 sentAcks:count 0
attr source org_car2x_veins_modules_mac_sigSentAck
scalar tlExample.node[94].nic.mac1609_4 sentPackets:count 80
attr source org_car2x_veins_modules_mac_sigSentPacket
scalar tlExample.node[94].nic.mac1609_4 collisions:count 0
attr source org_car2x_veins_modules_mac_sigCollision
scalar tlExample.node[94].nic.mac1609_4 channelBusy:timeavg 0.0056030111895788
attr source org_car2x_veins_modules_mac_sigChannelBusy
scalar tlExample.node[94].veinsmobility startTime 13
scalar tlExample.node[94].veinsmobility totalTime 59.1
scalar tlExample.node[94].veinsmobility stopTime 72.188173783553
scalar tlExample.node[94].veinsmobility minSpeed 0.34219494691701
scalar tlExample.node[94].veinsmobility maxSpeed 13.889719097803
scalar tlExample.node[94].veinsmobility totalDistance 743.64841757455
scalar tlExample.node[94].veinsmobility totalCO2Emission 200.9135145329
scalar tlExample.node[111].appl generatedWSMs 72
scalar tlExample.node[111].appl receivedWSMs 1138
scalar tlExample.node[111].appl generatedBSMs 0
scalar tlExample.node[111].appl receivedBSMs 0
scalar tlExample.node[111].appl generatedWSAs 0
scalar tlExample.node[111].appl receivedWSAs 41
scalar tlExample.node[111].nic.phy80211p busyTime 0.0057427949652434
scalar tlExample.node[111].nic.mac1609_4 ReceivedUnicastPackets 0
scalar tlExample.node[111].nic.mac1609_4 ReceivedBroadcasts 1179
scalar tlExample.node[111].nic.mac1609_4 SentPackets 72
scalar tlExample.node[111].nic.mac1609_4 SentAcknowledgements 0
scalar tlExample.node[111].nic.mac1609_4 RetriesExceeded 0
scalar tlExample.node[111].nic.mac1609_4 SNIRLostPackets 5394
scalar tlExample.node[111].nic.mac1609_4 RXTXLostPackets 1
scalar tlExample.node[111].nic.mac1609_4 TotalLostPackets 5395
scalar tlExample.node[111].nic.mac1609_4 DroppedPacketsInMac 0
scalar tlExample.node[111].nic.mac1609_4 TooLittleTime 0
scalar tlExample.node[111].nic.mac1609_4 TimesIntoBackoff 80
scalar tlExample.node[111].nic.mac1609_4 SlotsBackoff 109
scalar tlExample.node[111].nic.mac1609_4 NumInternalContention 0
scalar tlExample.node[111].nic.mac1609_4 totalBusyTime 0.325336
scalar tlExample.node[111].nic.mac1609_4 retriesExceeded:count 0
attr source org_car2x_veins_modules_mac_sigRetriesExceeded
scalar tlExample.node[111].nic.mac1609_4 sentAcks:count 0
attr source org_car2x_veins_modules_mac_sigSentAck
scalar tlExample.node[111].nic.mac1609_4 sentPackets:count 72
attr source org_car2x_veins_modules_mac_sigSentPacket
scalar tlExample.node[111].nic.mac1609_4 collisions:count 0
attr source org_car2x_veins_modules_mac_sigCollision
scalar tlExample.node[111].nic.mac1609_4 channelBusy:timeavg 0.0057593648052171
attr source org_car2x_veins_modules_mac_sigChannelBusy
scalar tlExample.node[111].veinsmobility startTime 15.7
scalar tlExample.node[111].veinsmobility totalTime 56.4
scalar tlExample.node[111].veinsmobility stopTime 72.188173783553
scalar tlExample.node[111].veinsmobility minSpeed 0.34344567174325
scalar tlExample.node[111].veinsmobility maxSpeed 13.889501693586
scalar tlExample.node[111].veinsmobility totalDistance 717.41767369573
scalar tlExample.node[111].veinsmobility totalCO2Emission 192.79928851291
scalar tlExample.node[127].appl generatedWSMs 66
scalar tlExample.node[127].appl receivedWSMs 1118
scalar tlExample.node[127].appl generatedBSMs 0
scalar tlExample.node[127].appl receivedBSMs 0
scalar tlExample.node[127].appl generatedWSAs 0
scalar tlExample.node[127].appl receivedWSAs 38
scalar tlExample.node[127].nic.phy80211p busyTime 0.0059058598140343
scalar tlExample.node[127].nic.mac1609_4 ReceivedUnicastPackets 0
scalar tlExample.node[127].nic.mac1609_4 ReceivedBroadcasts 1156
scalar tlExample.node[127].nic.mac1609_4 SentPackets 66
scalar tlExample.node[127].nic.mac1609_4 SentAcknowledgements 0
scalar tlExample.node[127].nic.mac1609_4 RetriesExceeded 0
scalar tlExample.node[127].nic.mac1609_4 SNIRLostPackets 5299
scalar tlExample.node[127].nic.mac1609_4 RXTXLostPackets 0
scalar tlExample.node[127].nic.mac1609_4 TotalLostPackets 5299
scalar tlExample.node[127].nic.mac1609_4 DroppedPacketsInMac 0
scalar tlExample.node[127].nic.mac1609_4 TooLittleTime 0
scalar tlExample.node[127].nic.mac1609_4 TimesIntoBackoff 72
scalar tlExample.node[127].nic.mac1609_4 SlotsBackoff 100
scalar tlExample.node[127].nic.mac1609_4 NumInternalContention 0
scalar tlExample.node[127].nic.mac1609_4 totalBusyTime 0.318994
scalar tlExample.node[127].nic.mac1609_4 retriesExceeded:count 0
attr source org_car2x_veins_modules_mac_sigRetriesExceeded
scalar tlExample.node[127].nic.mac1609_4 sentAcks:count 0
attr source org_car2x_veins_modules_mac_sigSentAck
scalar tlExample.node[127].nic.mac1609_4 sentPackets:count 66
attr source org_car2x_veins_modules_mac_sigSentPacket
scalar tlExample.node[127].nic.mac1609_4 collisions:count 0
attr source org_car2x_veins_modules_mac_sigCollision
scalar tlExample.node[127].nic.mac1609_4 channelBusy:timeavg 0.0059195548411281
attr source org_car2x_veins_modules_mac_sigChannelBusy
scalar tlExample.node[127].veinsmobility startTime 18.3
scalar tlExample.node[127].veinsmobility totalTime 53.8
scalar tlExample.node[127].veinsmobility stopTime 72.188173783553
scalar tlExample.node[127].veinsmobility minSpeed 0.32976906601107
scalar tlExample.node[127].veinsmobility maxSpeed 13.889983800214
scalar tlExample.node[127].veinsmobility totalDistance 691.61819954582
scalar tlExample.node[127].veinsmobility totalCO2Emission 189.4381987151
scalar tlExample.node[143].appl generatedWSMs 66
scalar tlExample.node[143].appl receivedWSMs 1090
scalar tlExample.node[143].appl generatedBSMs 0
scalar tlExample.node[143].appl receivedBSMs 0
scalar tlExample.node[143].appl generatedWSAs 0
scalar tlExample.node[143].appl receivedWSAs 36
scalar tlExample.node[143].nic.phy80211p busyTime 0.0060157031713574
scalar tlExample.node[143].nic.mac1609_4 ReceivedUnicastPackets 0
scalar tlExample.node[143].nic.mac1609_4 ReceivedBroadcasts 1126
scalar tlExample.node[143].nic.mac1609_4 SentPackets 66
scalar tlExample.node[143].nic.mac1609_4 SentAcknowledgements 0
scalar tlExample.node[143].nic.mac1609_4 RetriesExceeded 0
scalar tlExample.node[143].nic.mac1609_4 SNIRLostPackets 5150
scalar tlExample.node[143].nic.mac1609_4 RXTXLostPackets 0
scalar tlExample.node[143].nic.mac1609_4 TotalLostPackets 5150
scalar tlExample.node[143].nic.mac1609_4 DroppedPacketsInMac 0
scalar tlExample.node[143].nic.mac1609_4 TooLittleTime 0
scalar tlExample.node[143].nic.mac1609_4 TimesIntoBackoff 78
scalar tlExample.node[143].nic.mac1609_4 SlotsBackoff 93
scalar tlExample.node[143].nic.mac1609_4 NumInternalContention 0
scalar tlExample.node[143].nic.mac1609_4 totalBusyTime 0.309874
scalar tlExample.node[143].nic.mac1609_4 retriesExceeded:count 0
attr source org_car2x_veins_modules_mac_sigRetriesExceeded
scalar tlExample.node[143].nic.mac1609_4 sentAcks:count 0
attr source org_car2x_veins_modules_mac_sigSentAck
scalar tlExample.node[143].nic.mac1609_4 sentPackets:count 66
attr source org_car2x_veins_modules_mac_sigSentPacket
scalar tlExample.node[143].nic.mac1609_4 collisions:count 0
attr source org_car2x_veins_modules_mac_sigCollision
scalar tlExample.node[143].nic.mac1609_4 channelBusy:timeavg 0.0060300644522837
attr source org_car2x_veins_modules_mac_sigChannelBusy
scalar tlExample.node[143].veinsmobility startTime 20.8
scalar tlExample.node[143].veinsmobility totalTime 51.3
scalar tlExample.node[143].veinsmobility stopTime 72.188173783553
scalar tlExample.node[143].veinsmobility minSpeed 0.31733702198602
scalar tlExample.node[143].veinsmobility maxSpeed 13.88926173836
scalar tlExample.node[143].veinsmobility totalDistance 662.39760070794
scalar tlExample.node[143].veinsmobility totalCO2Emission 183.94377554622
scalar tlExample.node[159].appl generatedWSMs 66
scalar tlExample.node[159].appl receivedWSMs 1055
scalar tlExample.node[159].appl generatedBSMs 0
scalar tlExample.node[159].appl receivedBSMs 0
scalar tlExample.node[159].appl generatedWSAs 0
scalar tlExample.node[159].appl receivedWSAs 32
scalar tlExample.node[159].nic.phy80211p busyTime 0.0060840806460119
scalar tlExample.node[159].nic.mac1609_4 ReceivedUnicastPackets 0
scalar tlExample.node[159].nic.mac1609_4 ReceivedBroadcasts 1087
scalar tlExample.node[159].nic.mac1609_4 SentPackets 66
scalar tlExample.node[159].nic.mac1609_4 SentAcknowledgements 0
scalar tlExample.node[159].nic.mac1609_4 RetriesExceeded 0
scalar tlExample.node[159].nic.mac1609_4 SNIRLostPackets 4967
scalar tlExample.node[159].nic.mac1609_4 RXTXLostPackets 3
scalar tlExample.node[159].nic.mac1609_4 TotalLostPackets 4970
scalar tlExample.node[159].nic.mac1609_4 DroppedPacketsInMac 0
scalar tlExample.node[159].nic.mac1609_4 TooLittleTime 0
scalar tlExample.node[159].nic.mac1609_4 TimesIntoBackoff 73
scalar tlExample.node[159].nic.mac1609_4 SlotsBackoff 104
scalar tlExample.node[159].nic.mac1609_4 NumInternalContention 0
scalar tlExample.node[159].nic.mac1609_4 totalBusyTime 0.299074
scalar tlExample.node[159].nic.mac1609_4 retriesExceeded:count 0
attr source org_car2x_veins_modules_mac_sigRetriesExceeded
scalar tlExample.node[159].nic.mac1609_4 sentAcks:count 0
attr source org_car2x_veins_modules_mac_sigSentAck
scalar tlExample.node[159].nic.mac1609_4 sentPackets:count 66
attr source org_car2x_veins_modules_mac_sigSentPacket
scalar tlExample.node[159].nic.mac1609_4 collisions:count 0
attr source org_car2x_veins_modules_mac_sigCollision
scalar tlExample.node[159].nic.mac1609_4 channelBusy:timeavg 0.006105024476344
attr source org_car2x_veins_modules_mac_sigChannelBusy
scalar tlExample.node[159].veinsmobility startTime 23.2
scalar tlExample.node[159].veinsmobility totalTime 48.9
scalar tlExample.node[159].veinsmobility stopTime 72.188173783553
scalar tlExample.node[159].veinsmobility minSpeed 0.32555317379185
scalar tlExample.node[159].veinsmobility maxSpeed 13.889809244147
scalar tlExample.node[159].veinsmobility totalDistance 627.2117966395
scalar tlExample.node[159].veinsmobility totalCO2Emission 183.13026714767
scalar tlExample.node[1].appl generatedWSMs 97
scalar tlExample.node[1].appl receivedWSMs 728
scalar tlExample.node[1].appl generatedBSMs 0
scalar tlExample.node[1].appl receivedBSMs 0
scalar tlExample.node[1].appl generatedWSAs 0
scalar tlExample.node[1].appl receivedWSAs 59
scalar tlExample.node[1].nic.phy80211p busyTime 0.0063650939664205
scalar tlExample.node[1].nic.mac1609_4 ReceivedUnicastPackets 0
scalar tlExample.node[1].nic.mac1609_4 ReceivedBroadcasts 787
scalar tlExample.node[1].nic.mac1609_4 SentPackets 97
scalar tlExample.node[1].nic.mac1609_4 SentAcknowledgements 0
scalar tlExample.node[1].nic.mac1609_4 RetriesExceeded 0
scalar tlExample.node[1].nic.mac1609_4 SNIRLostPackets 8475
scalar tlExample.node[1].nic.mac1609_4 RXTXLostPackets 1
scalar tlExample.node[1].nic.mac1609_4 TotalLostPackets 8476
scalar tlExample.node[1].nic.mac1609_4 DroppedPacketsInMac 0
scalar tlExample.node[1].nic.mac1609_4 TooLittleTime 0
scalar tlExample.node[1].nic.mac1609_4 TimesIntoBackoff 106
scalar tlExample.node[1].nic.mac1609_4 SlotsBackoff 150
scalar tlExample.node[1].nic.mac1609_4 NumInternalContention 0
scalar tlExample.node[1].nic.mac1609_4 totalBusyTime 0.457601
scalar tlExample.node[1].nic.mac1609_4 retriesExceeded:count 0
attr source org_car2x_veins_modules_mac_sigRetriesExceeded
scalar tlExample.node[1].nic.mac1609_4 sentAcks:count 0
attr source org_car2x_veins_modules_mac_sigSentAck
scalar tlExample.node[1].nic.mac1609_4 sentPackets:count 97
attr source org_car2x_veins_modules_mac_sigSentPacket
scalar tlExample.node[1].nic.mac1609_4 collisions:count 0
attr source org_car2x_veins_modules_mac_sigCollision
scalar tlExample.node[1].nic.mac1609_4 channelBusy:timeavg 0.0063477957060464
attr source org_car2x_veins_modules_mac_sigChannelBusy
scalar tlExample.node[1].veinsmobility startTime 0.1
scalar tlExample.node[1].veinsmobility totalTime 72
scalar tlExample.node[1].veinsmobility stopTime 72.188173783553
scalar tlExample.node[1].veinsmobility minSpeed 0.33079152741935
scalar tlExample.node[1].veinsmobility maxSpeed 13.889609335908
scalar tlExample.node[1].veinsmobility totalDistance 940.22869830989
scalar tlExample.node[1].veinsmobility totalCO2Emission 252.33226890457
scalar tlExample.node[19].appl generatedWSMs 98
scalar tlExample.node[19].appl receivedWSMs 727
scalar tlExample.node[19].appl generatedBSMs 0
scalar tlExample.node[19].appl receivedBSMs 0
scalar tlExample.node[19].appl generatedWSAs 0
scalar tlExample.node[19].appl receivedWSAs 55
scalar tlExample.node[19].nic.phy80211p busyTime 0.0064730539042602
scalar tlExample.node[19].nic.mac1609_4 ReceivedUnicastPackets 0
scalar tlExample.node[19].nic.mac1609_4 ReceivedBroadcasts 782
scalar tlExample.node[19].nic.mac1609_4 SentPackets 98
scalar tlExample.node[19].nic.mac1609_4 SentAcknowledgements 0
scalar tlExample.node[19].nic.mac1609_4 RetriesExceeded 0
scalar tlExample.node[19].nic.mac1609_4 SNIRLostPackets 8317
scalar tlExample.node[19].nic.mac1609_4 RXTXLostPackets 4
scalar tlExample.node[19].nic.mac1609_4 TotalLostPackets 8321
scalar tlExample.node[19].nic.mac1609_4 DroppedPacketsInMac 0
scalar tlExample.node[19].nic.mac1609_4 TooLittleTime 0
scalar tlExample.node[19].nic.mac1609_4 TimesIntoBackoff 113
scalar tlExample.node[19].nic.mac1609_4 SlotsBackoff 147
scalar tlExample.node[19].nic.mac1609_4 NumInternalContention 0
scalar tlExample.node[19].nic.mac1609_4 totalBusyTime 0.449634
scalar tlExample.node[19].nic.mac1609_4 retriesExceeded:count 0
attr source org_car2x_veins_modules_mac_sigRetriesExceeded
scalar tlExample.node[19].nic.mac1609_4 sentAcks:count 0
attr source org_car2x_veins_modules_mac_sigSentAck
scalar tlExample.node[19].nic.mac1609_4 sentPackets:count 98
attr source org_car2x_veins_modules_mac_sigSentPacket
scalar tlExample.node[19].nic.mac1609_4 collisions:count 0
attr source org_car2x_veins_modules_mac_sigCollision
scalar tlExample.node[19].nic.mac1609_4 channelBusy:timeavg 0.0064613565143771
attr source org_car2x_veins_modules_mac_sigChannelBusy
scalar tlExample.node[19].veinsmobility startTime 2.6
scalar tlExample.node[19].veinsmobility totalTime 69.5
scalar tlExample.node[19].veinsmobility stopTime 72.188173783553
scalar tlExample.node[19].veinsmobility minSpeed 0.32838197282865
scalar tlExample.node[19].veinsmobility maxSpeed 13.889339854065
scalar tlExample.node[19].veinsmobility totalDistance 907.67477754582
scalar tlExample.node[19].veinsmobility totalCO2Emission 245.88628810948
scalar tlExample.node[35].appl generatedWSMs 91
scalar tlExample.node[35].appl receivedWSMs 735
scalar tlExample.node[35].appl generatedBSMs 0
scalar tlExample.node[35].appl receivedBSMs 0
scalar tlExample.node[35].appl generatedWSAs 0
scalar tlExample.node[35].appl receivedWSAs 51
scalar tlExample.node[35].nic.phy80211p busyTime 0.0065833361543706
scalar tlExample.node[35].nic.mac1609_4 ReceivedUnicastPackets 0
scalar tlExample.node[35].nic.mac1609_4 ReceivedBroadcasts 786
scalar tlExample.node[35].nic.mac1609_4 SentPackets 91
scalar tlExample.node[35].nic.mac1609_4 SentAcknowledgements 0
scalar tlExample.node[35].nic.mac1609_4 RetriesExceeded 0
scalar tlExample.node[35].nic.mac1609_4 SNIRLostPackets 8143
scalar tlExample.node[35].nic.mac1609_4 RXTXLostPackets 0
scalar tlExample.node[35].nic.mac1609_4 TotalLostPackets 8143
scalar tlExample.node[35].nic.mac1609_4 DroppedPacketsInMac 0
scalar tlExample.node[35].nic.mac1609_4 TooLittleTime 0
scalar tlExample.node[35].nic.mac1609_4 TimesIntoBackoff 106
scalar tlExample.node[35].nic.mac1609_4 SlotsBackoff 129
scalar tlExample.node[35].nic.mac1609_4 NumInternalContention 0
scalar tlExample.node[35].nic.mac1609_4 totalBusyTime 0.440651
scalar tlExample.node[35].nic.mac1609_4 retriesExceeded:count 0
attr source org_car2x_veins_modules_mac_sigRetriesExceeded
scalar tlExample.node[35].nic.mac1609_4 sentAcks:count 0
attr source org_car2x_veins_modules_mac_sigSentAck
scalar tlExample.node[35].nic.mac1609_4 sentPackets:count 91
attr source org_car2x_veins_modules_mac_sigSentPacket
scalar tlExample.node[35].nic.mac1609_4 collisions:count 0
attr source org_car2x_veins_modules_mac_sigCollision
scalar tlExample.node[35].nic.mac1609_4 channelBusy:timeavg 0.0065682366227711
attr source org_car2x_veins_modules_mac_sigChannelBusy
scalar tlExample.node[35].veinsmobility startTime 5.1
scalar tlExample.node[35].veinsmobility totalTime 67
scalar tlExample.node[35].veinsmobility stopTime 72.188173783553
scalar tlExample.node[35].veinsmobility minSpeed 0.3429872487078
scalar tlExample.node[35].veinsmobility maxSpeed 13.889329932325
scalar tlExample.node[35].veinsmobility totalDistance 867.88236509735
scalar tlExample.node[35].veinsmobility totalCO2Emission 236.05865569334
scalar tlExample.node[51].appl generatedWSMs 93
scalar tlExample.node[51].appl receivedWSMs 734
scalar tlExample.node[51].appl generatedBSMs 0
scalar tlExample.node[51].appl receivedBSMs 0
scalar tlExample.node[51].appl generatedWSAs 0
scalar tlExample.node[51].appl receivedWSAs 52
scalar tlExample.node[51].nic.phy80211p busyTime 0.0067014125751638
scalar tlExample.node[51].nic.mac1609_4 ReceivedUnicastPackets 0
scalar tlExample.node[51].nic.mac1609_4 ReceivedBroadcasts 786
scalar tlExample.node[51].nic.mac1609_4 SentPackets 93
scalar tlExample.node[51].nic.mac1609_4 SentAcknowledgements 0
scalar tlExample.node[51].nic.mac1609_4 RetriesExceeded 0
scalar tlExample.node[51].nic.mac1609_4 SNIRLostPackets 7971
scalar tlExample.node[51].nic.mac1609_4 RXTXLostPackets 0
scalar tlExample.node[51].nic.mac1609_4 TotalLostPackets 7971
scalar tlExample.node[51].nic.mac1609_4 DroppedPacketsInMac 0
scalar tlExample.node[51].nic.mac1609_4 TooLittleTime 0
scalar tlExample.node[51].nic.mac1609_4 TimesIntoBackoff 99
scalar tlExample.node[51].nic.mac1609_4 SlotsBackoff 155
scalar tlExample.node[51].nic.mac1609_4 NumInternalContention 0
scalar tlExample.node[51].nic.mac1609_4 totalBusyTime 0.432375149331
scalar tlExample.node[51].nic.mac1609_4 retriesExceeded:count 0
attr source org_car2x_veins_modules_mac_sigRetriesExceeded
scalar tlExample.node[51].nic.mac1609_4 sentAcks:count 0
attr source org_car2x_veins_modules_mac_sigSentAck
scalar tlExample.node[51].nic.mac1609_4 sentPackets:count 93
attr source org_car2x_veins_modules_mac_sigSentPacket
scalar tlExample.node[51].nic.mac1609_4 collisions:count 0
attr source org_car2x_veins_modules_mac_sigCollision
scalar tlExample.node[51].nic.mac1609_4 channelBusy:timeavg 0.0066876507575286
attr source org_car2x_veins_modules_mac_sigChannelBusy
scalar tlExample.node[51].veinsmobility startTime 7.6
scalar tlExample.node[51].veinsmobility totalTime 64.5
scalar tlExample.node[51].veinsmobility stopTime 72.188173783553
scalar tlExample.node[51].veinsmobility minSpeed 0.33799777219654
scalar tlExample.node[51].veinsmobility maxSpeed 13.889069591868
scalar tlExample.node[51].veinsmobility totalDistance 836.77488193293
scalar tlExample.node[51].veinsmobility totalCO2Emission 228.98549991329
scalar tlExample.node[68].appl generatedWSMs 100
scalar tlExample.node[68].appl receivedWSMs 725
scalar tlExample.node[68].appl generatedBSMs 0
scalar tlExample.node[68].appl receivedBSMs 0
scalar tlExample.node[68].appl generatedWSAs 0
scalar tlExample.node[68].appl receivedWSAs 48
scalar tlExample.node[68].nic.phy80211p busyTime 0.0068150820714275
scalar tlExample.node[68].nic.mac1609_4 ReceivedUnicastPackets 0
scalar tlExample.node[68].nic.mac1609_4 ReceivedBroadcasts 773
scalar tlExample.node[68].nic.mac1609_4 SentPackets 100
scalar tlExample.node[68].nic.mac1609_4 SentAcknowledgements 0
scalar tlExample.node[68].nic.mac1609_4 RetriesExceeded 0
scalar tlExample.node[68].nic.mac1609_4 SNIRLostPackets 7795
scalar tlExample.node[68].nic.mac1609_4 RXTXLostPackets 1
scalar tlExample.node[68].nic.mac1609_4 TotalLostPackets 7796
scalar tlExample.node[68].nic.mac1609_4 DroppedPacketsInMac 0
scalar tlExample.node[68].nic.mac1609_4 TooLittleTime 0
scalar tlExample.node[68].nic.mac1609_4 TimesIntoBackoff 111
scalar tlExample.node[68].nic.mac1609_4 SlotsBackoff 150
scalar tlExample.node[68].nic.mac1609_4 NumInternalContention 0
scalar tlExample.node[68].nic.mac1609_4 totalBusyTime 0.422948
scalar tlExample.node[68].nic.mac1609_4 retriesExceeded:count 0
attr source org_car2x_veins_modules_mac_sigRetriesExceeded
scalar tlExample.node[68].nic.mac1609_4 sentAcks:count 0
attr source org_car2x_veins_modules_mac_sigSentAck
scalar tlExample.node[68].nic.mac1609_4 sentPackets:count 100
attr source org_car2x_veins_modules_mac_sigSentPacket
scalar tlExample.node[68].nic.mac1609_4 collisions:count 0
attr source org_car2x_veins_modules_mac_sigCollision
scalar tlExample.node[68].nic.mac1609_4 channelBusy:timeavg 0.0068120541195883
attr source org_car2x_veins_modules_mac_sigChannelBusy
scalar tlExample.node[68].veinsmobility startTime 10.1
scalar tlExample.node[68].veinsmobility totalTime 62
scalar tlExample.node[68].veinsmobility stopTime 72.188173783553
scalar tlExample.node[68].veinsmobility minSpeed 0.33243794055888
scalar tlExample.node[68].veinsmobility maxSpeed 13.888516931466
scalar tlExample.node[68].veinsmobility totalDistance 804.10198476362
scalar tlExample.node[68].veinsmobility totalCO2Emission 216.84707586704
scalar tlExample.node[85].appl generatedWSMs 78
scalar tlExample.node[85].appl receivedWSMs 747
scalar tlExample.node[85].appl generatedBSMs 0
scalar tlExample.node[85].appl receivedBSMs 0
scalar tlExample.node[85].appl generatedWSAs 0
scalar tlExample.node[85].appl receivedWSAs 43
scalar tlExample.node[85].nic.phy80211p busyTime 0.0069680940635669
scalar tlExample.node[85].nic.mac1609_4 ReceivedUnicastPackets 0
scalar tlExample.node[85].nic.mac1609_4 ReceivedBroadcasts 790
scalar tlExample.node[85].nic.mac1609_4 SentPackets 78
scalar tlExample.node[85].nic.mac1609_4 SentAcknowledgements 0
scalar tlExample.node[85].nic.mac1609_4 RetriesExceeded 0
scalar tlExample.node[85].nic.mac1609_4 SNIRLostPackets 7625
scalar tlExample.node[85].nic.mac1609_4 RXTXLostPackets 0
scalar tlExample.node[85].nic.mac1609_4 TotalLostPackets 7625
scalar tlExample.node[85].nic.mac1609_4 DroppedPacketsInMac 0
scalar tlExample.node[85].nic.mac1609_4 TooLittleTime 0
scalar tlExample.node[85].nic.mac1609_4 TimesIntoBackoff 87
scalar tlExample.node[85].nic.mac1609_4 SlotsBackoff 125
scalar tlExample.node[85].nic.mac1609_4 NumInternalContention 0
scalar tlExample.node[85].nic.mac1609_4 totalBusyTime 0.41419
scalar tlExample.node[85].nic.mac1609_4 retriesExceeded:count 0
attr source org_car2x_veins_modules_mac_sigRetriesExceeded
scalar tlExample.node[85].nic.mac1609_4 sentAcks:count 0
attr source org_car2x_veins_modules_mac_sigSentAck
scalar tlExample.node[85].nic.mac1609_4 sentPackets:count 78
attr source org_car2x_veins_modules_mac_sigSentPacket
scalar tlExample.node[85].nic.mac1609_4 collisions:count 0
attr source org_car2x_veins_modules_mac_sigCollision
scalar tlExample.node[85].nic.mac1609_4 channelBusy:timeavg 0.0069508758819236
attr source org_car2x_veins_modules_mac_sigChannelBusy
scalar tlExample.node[85].veinsmobility startTime 12.6
scalar tlExample.node[85].veinsmobility totalTime 59.5
scalar tlExample.node[85].veinsmobility stopTime 72.188173783553
scalar tlExample.node[85].veinsmobility minSpeed 0.34966093291761
scalar tlExample.node[85].veinsmobility maxSpeed 13.889135799415
scalar tlExample.node[85].veinsmobility totalDistance 769.9873015744
scalar tlExample.node[85].veinsmobility totalCO2Emission 216.07583103836
scalar tlExample.node[100].appl generatedWSMs 71
scalar tlExample.node[100].appl receivedWSMs 748
scalar tlExample.node[100].appl generatedBSMs 0
scalar tlExample.node[100].appl receivedBSMs 0
scalar tlExample.node[100].appl generatedWSAs 0
scalar tlExample.node[100].appl receivedWSAs 43
scalar tlExample.node[100].nic.phy80211p busyTime 0.0071084424865047
scalar tlExample.node[100].nic.mac1609_4 ReceivedUnicastPackets 0
scalar tlExample.node[100].nic.mac1609_4 ReceivedBroadcasts 791
scalar tlExample.node[100].nic.mac1609_4 SentPackets 71
scalar tlExample.node[100].nic.mac1609_4 SentAcknowledgements 0
scalar tlExample.node[100].nic.mac1609_4 RetriesExceeded 0
scalar tlExample.node[100].nic.mac1609_4 SNIRLostPackets 7441
scalar tlExample.node[100].nic.mac1609_4 RXTXLostPackets 1
scalar tlExample.node[100].nic.mac1609_4 TotalLostPackets 7442
scalar tlExample.node[100].nic.mac1609_4 DroppedPacketsInMac 0
scalar tlExample.node[100].nic.mac1609_4 TooLittleTime 0
scalar tlExample.node[100].nic.mac1609_4 TimesIntoBackoff 77
scalar tlExample.node[100].nic.mac1609_4 SlotsBackoff 111
scalar tlExample.node[100].nic.mac1609_4 NumInternalContention 0
scalar tlExample.node[100].nic.mac1609_4 totalBusyTime 0.404823
scalar tlExample.node[100].nic.mac1609_4 retriesExceeded:count 0
attr source org_car2x_veins_modules_mac_sigRetriesExceeded
scalar tlExample.node[100].nic.mac1609_4 sentAcks:count 0
attr source org_car2x_veins_modules_mac_sigSentAck
scalar tlExample.node[100].nic.mac1609_4 sentPackets:count 71
attr source org_car2x_veins_modules_mac_sigSentPacket
scalar tlExample.node[100].nic.mac1609_4 collisions:count 0
attr source org_car2x_veins_modules_mac_sigCollision
scalar tlExample.node[100].nic.mac1609_4 channelBusy:timeavg 0.0070911884751269
attr source org_car2x_veins_modules_mac_sigChannelBusy
scalar tlExample.node[100].veinsmobility startTime 15.1
scalar tlExample.node[100].veinsmobility totalTime 57
scalar tlExample.node[100].veinsmobility stopTime 72.188173783553
scalar tlExample.node[100].veinsmobility minSpeed 0.31855721048545
scalar tlExample.node[100].veinsmobility maxSpeed 13.88972885102
scalar tlExample.node[100].veinsmobility totalDistance 735.49867815964
scalar tlExample.node[100].veinsmobility totalCO2Emission 205.8916749891
scalar tlExample.node[117].appl generatedWSMs 67
scalar tlExample.node[117].appl receivedWSMs 745
scalar tlExample.node[117].appl generatedBSMs 0
scalar tlExample.node[117].appl receivedBSMs 0
scalar tlExample.node[117].appl generatedWSAs 0
scalar tlExample.node[117].appl receivedWSAs 41
scalar tlExample.node[117].nic.phy80211p busyTime 0.0072801116515773
scalar tlExample.node[117].nic.mac1609_4 ReceivedUnicastPackets 0
scalar tlExample.node[117].nic.mac1609_4 ReceivedBroadcasts 786
scalar tlExample.node[117].nic.mac1609_4 SentPackets 67
scalar tlExample.node[117].nic.mac1609_4 SentAcknowledgements 0
scalar tlExample.node[117].nic.mac1609_4 RetriesExceeded 0
scalar tlExample.node[117].nic.mac1609_4 SNIRLostPackets 7282
scalar tlExample.node[117].nic.mac1609_4 RXTXLostPackets 0
scalar tlExample.node[117].nic.mac1609_4 TotalLostPackets 7282
scalar tlExample.node[117].nic.mac1609_4 DroppedPacketsInMac 0
scalar tlExample.node[117].nic.mac1609_4 TooLittleTime 0
scalar tlExample.node[117].nic.mac1609_4 TimesIntoBackoff 70
scalar tlExample.node[117].nic.mac1609_4 SlotsBackoff 118
scalar tlExample.node[117].nic.mac1609_4 NumInternalContention 0
scalar tlExample.node[117].nic.mac1609_4 totalBusyTime 0.396323
scalar tlExample.node[117].nic.mac1609_4 retriesExceeded:count 0
attr source org_car2x_veins_modules_mac_sigRetriesExceeded
scalar tlExample.node[117].nic.mac1609_4 sentAcks:count 0
attr source org_car2x_veins_modules_mac_sigSentAck
scalar tlExample.node[117].nic.mac1609_4 sentPackets:count 67
attr source org_car2x_veins_modules_mac_sigSentPacket
scalar tlExample.node[117].nic.mac1609_4 collisions:count 0
attr source org_car2x_veins_modules_mac_sigCollision
scalar tlExample.node[117].nic.mac1609_4 channelBusy:timeavg 0.0072602355515945
attr source org_car2x_veins_modules_mac_sigChannelBusy
scalar tlExample.node[117].veinsmobility startTime 17.6
scalar tlExample.node[117].veinsmobility totalTime 54.5
scalar tlExample.node[117].veinsmobility stopTime 72.188173783553
scalar tlExample.node[117].veinsmobility minSpeed 0.31860777207417
scalar tlExample.node[117].veinsmobility maxSpeed 13.889391801306
scalar tlExample.node[117].veinsmobility totalDistance 703.90988641459
scalar tlExample.node[117].veinsmobility totalCO2Emission 196.46709861873
scalar tlExample.node[131].appl generatedWSMs 69
scalar tlExample.node[131].appl receivedWSMs 734
scalar tlExample.node[131].appl generatedBSMs 0
scalar tlExample.node[131].appl receivedBSMs 0
scalar tlExample.node[131].appl generatedWSAs 0
scalar tlExample.node[131].appl receivedWSAs 38
scalar tlExample.node[131].nic.phy80211p busyTime 0.0074521097751563
scalar tlExample.node[131].nic.mac1609_4 ReceivedUnicastPackets 0
scalar tlExample.node[131].nic.mac1609_4 ReceivedBroadcasts 772
scalar tlExample.node[131].nic.mac1609_4 SentPackets 69
scalar tlExample.node[131].nic.mac1609_4 SentAcknowledgements 0
scalar tlExample.node[131].nic.mac1609_4 RetriesExceeded 0
scalar tlExample.node[131].nic.mac1609_4 SNIRLostPackets 7129
scalar tlExample.node[131].nic.mac1609_4 RXTXLostPackets 0
scalar tlExample.node[131].nic.mac1609_4 TotalLostPackets 7129
scalar tlExample.node[131].nic.mac1609_4 DroppedPacketsInMac 0
scalar tlExample.node[131].nic.mac1609_4 TooLittleTime 0
scalar tlExample.node[131].nic.mac1609_4 TimesIntoBackoff 71
scalar tlExample.node[131].nic.mac1609_4 SlotsBackoff 101
scalar tlExample.node[131].nic.mac1609_4 NumInternalContention 0
scalar tlExample.node[131].nic.mac1609_4 totalBusyTime 0.387925
scalar tlExample.node[131].nic.mac1609_4 retriesExceeded:count 0
attr source org_car2x_veins_modules_mac_sigRetriesExceeded
scalar tlExample.node[131].nic.mac1609_4 sentAcks:count 0
attr source org_car2x_veins_modules_mac_sigSentAck
scalar tlExample.node[131].nic.mac1609_4 sentPackets:count 69
attr source org_car2x_veins_modules_mac_sigSentPacket
scalar tlExample.node[131].nic.mac1609_4 collisions:count 0
attr source org_car2x_veins_modules_mac_sigCollision
scalar tlExample.node[131].nic.mac1609_4 channelBusy:timeavg 0.0074331974444798
attr source org_car2x_veins_modules_mac_sigChannelBusy
scalar tlExample.node[131].veinsmobility startTime 20
scalar tlExample.node[131].veinsmobility totalTime 52.1
scalar tlExample.node[131].veinsmobility stopTime 72.188173783553
scalar tlExample.node[131].veinsmobility minSpeed 0.32594077231712
scalar tlExample.node[131].veinsmobility maxSpeed 13.887937644052
scalar tlExample.node[131].veinsmobility totalDistance 669.25387665834
scalar tlExample.node[131].veinsmobility totalCO2Emission 186.7775143155
scalar tlExample.node[147].appl generatedWSMs 61
scalar tlExample.node[147].appl receivedWSMs 727
scalar tlExample.node[147].appl generatedBSMs 0
scalar tlExample.node[147].appl receivedBSMs 0
scalar tlExample.node[147].appl generatedWSAs 0
scalar tlExample.node[147].appl receivedWSAs 34
scalar tlExample.node[147].nic.phy80211p busyTime 0.0075906995826202
scalar tlExample.node[147].nic.mac1609_4 ReceivedUnicastPackets 0
scalar tlExample.node[147].nic.mac1609_4 ReceivedBroadcasts 761
scalar tlExample.node[147].nic.mac1609_4 SentPackets 61
scalar tlExample.node[147].nic.mac1609_4 SentAcknowledgements 0
scalar tlExample.node[147].nic.mac1609_4 RetriesExceeded 0
scalar tlExample.node[147].nic.mac1609_4 SNIRLostPackets 6907
scalar tlExample.node[147].nic.mac1609_4 RXTXLostPackets 1
scalar tlExample.node[147].nic.mac1609_4 TotalLostPackets 6908
scalar tlExample.node[147].nic.mac1609_4 DroppedPacketsInMac 0
scalar tlExample.node[147].nic.mac1609_4 TooLittleTime 0
scalar tlExample.node[147].nic.mac1609_4 TimesIntoBackoff 67
scalar tlExample.node[147].nic.mac1609_4 SlotsBackoff 91
scalar tlExample.node[147].nic.mac1609_4 NumInternalContention 0
scalar tlExample.node[147].nic.mac1609_4 totalBusyTime 0.375885
scalar tlExample.node[147].nic.mac1609_4 retriesExceeded:count 0
attr source org_car2x_veins_modules_mac_sigRetriesExceeded
scalar tlExample.node[147].nic.mac1609_4 sentAcks:count 0
attr source org_car2x_veins_modules_mac_sigSentAck
scalar tlExample.node[147].nic.mac1609_4 sentPackets:count 61
attr source org_car2x_veins_modules_mac_sigSentPacket
scalar tlExample.node[147].nic.mac1609_4 collisions:count 0
attr source org_car2x_veins_modules_mac_sigCollision
scalar tlExample.node[147].nic.mac1609_4 channelBusy:timeavg 0.0075648785491165
attr source org_car2x_veins_modules_mac_sigChannelBusy
scalar tlExample.node[147].veinsmobility startTime 22.5
scalar tlExample.node[147].veinsmobility totalTime 49.6
scalar tlExample.node[147].veinsmobility stopTime 72.188173783553
scalar tlExample.node[147].veinsmobility minSpeed 0.34299920041463
scalar tlExample.node[147].veinsmobility maxSpeed 13.889462493369
scalar tlExample.node[147].veinsmobility totalDistance 630.65653754306
scalar tlExample.node[147].veinsmobility totalCO2Emission 178.65193335978
scalar tlExample.node[2].appl generatedWSMs 111
scalar tlExample.node[2].appl receivedWSMs 746
scalar tlExample.node[2].appl generatedBSMs 0
scalar tlExample.node[2].appl receivedBSMs 0
scalar tlExample.node[2].appl generatedWSAs 0
scalar tlExample.node[2].appl receivedWSAs 61
scalar tlExample.node[2].nic.phy80211p busyTime 0.0063859573053159
scalar tlExample.node[2].nic.mac1609_4 ReceivedUnicastPackets 0
scalar tlExample.node[2].nic.mac1609_4 ReceivedBroadcasts 807
scalar tlExample.node[2].nic.mac1609_4 SentPackets 111
scalar tlExample.node[2].nic.mac1609_4 SentAcknowledgements 0
scalar tlExample.node[2].nic.mac1609_4 RetriesExceeded 0
scalar tlExample.node[2].nic.mac1609_4 SNIRLostPackets 8485
scalar tlExample.node[2].nic.mac1609_4 RXTXLostPackets 1
scalar tlExample.node[2].nic.mac1609_4 TotalLostPackets 8486
scalar tlExample.node[2].nic.mac1609_4 DroppedPacketsInMac 0
scalar tlExample.node[2].nic.mac1609_4 TooLittleTime 0
scalar tlExample.node[2].nic.mac1609_4 TimesIntoBackoff 114
scalar tlExample.node[2].nic.mac1609_4 SlotsBackoff 169
scalar tlExample.node[2].nic.mac1609_4 NumInternalContention 0
scalar tlExample.node[2].nic.mac1609_4 totalBusyTime 0.459474445197
scalar tlExample.node[2].nic.mac1609_4 retriesExceeded:count 0
attr source org_car2x_veins_modules_mac_sigRetriesExceeded
scalar tlExample.node[2].nic.mac1609_4 sentAcks:count 0
attr source org_car2x_veins_modules_mac_sigSentAck
scalar tlExample.node[2].nic.mac1609_4 sentPackets:count 111
attr source org_car2x_veins_modules_mac_sigSentPacket
scalar tlExample.node[2].nic.mac1609_4 collisions:count 0
attr source org_car2x_veins_modules_mac_sigCollision
scalar tlExample.node[2].nic.mac1609_4 channelBusy:timeavg 0.0063717132902839
attr source org_car2x_veins_modules_mac_sigChannelBusy
scalar tlExample.node[2].veinsmobility startTime 0.1
scalar tlExample.node[2].veinsmobility totalTime 72
scalar tlExample.node[2].veinsmobility stopTime 72.188173783553
scalar tlExample.node[2].veinsmobility minSpeed 0.32925043842639
scalar tlExample.node[2].veinsmobility maxSpeed 13.889373573705
scalar tlExample.node[2].veinsmobility totalDistance 942.35426856626
scalar tlExample.node[2].veinsmobility totalCO2Emission 254.55855437514
scalar tlExample.node[20].appl generatedWSMs 103
scalar tlExample.node[20].appl receivedWSMs 755
scalar tlExample.node[20].appl generatedBSMs 0
scalar tlExample.node[20].appl receivedBSMs 0
scalar tlExample.node[20].appl generatedWSAs 0
scalar tlExample.node[20].appl receivedWSAs 55
scalar tlExample.node[20].nic.phy80211p busyTime 0.0064794917797732
scalar tlExample.node[20].nic.mac1609_4 ReceivedUnicastPackets 0
scalar tlExample.node[20].nic.mac1609_4 ReceivedBroadcasts 810
scalar tlExample.node[20].nic.mac1609_4 SentPackets 103
scalar tlExample.node[20].nic.mac1609_4 SentAcknowledgements 0
scalar tlExample.node[20].nic.mac1609_4 RetriesExceeded 0
scalar tlExample.node[20].nic.mac1609_4 SNIRLostPackets 8298
scalar tlExample.node[20].nic.mac1609_4 RXTXLostPackets 0
scalar tlExample.node[20].nic.mac1609_4 TotalLostPackets 8298
scalar tlExample.node[20].nic.mac1609_4 DroppedPacketsInMac 0
scalar tlExample.node[20].nic.mac1609_4 TooLittleTime 0
scalar tlExample.node[20].nic.mac1609_4 TimesIntoBackoff 110
scalar tlExample.node[20].nic.mac1609_4 SlotsBackoff 148
scalar tlExample.node[20].nic.mac1609_4 NumInternalContention 0
scalar tlExample.node[20].nic.mac1609_4 totalBusyTime 0.449559
scalar tlExample.node[20].nic.mac1609_4 retriesExceeded:count 0
attr source org_car2x_veins_modules_mac_sigRetriesExceeded
scalar tlExample.node[20].nic.mac1609_4 sentAcks:count 0
attr source org_car2x_veins_modules_mac_sigSentAck
scalar tlExample.node[20].nic.mac1609_4 sentPackets:count 103
attr source org_car2x_veins_modules_mac_sigSentPacket
scalar tlExample.node[20].nic.mac1609_4 collisions:count 0
attr source org_car2x_veins_modules_mac_sigCollision
scalar tlExample.node[20].nic.mac1609_4 channelBusy:timeavg 0.006460891049942
attr source org_car2x_veins_modules_mac_sigChannelBusy
scalar tlExample.node[20].veinsmobility startTime 2.6
scalar tlExample.node[20].veinsmobility totalTime 69.5
scalar tlExample.node[20].veinsmobility stopTime 72.188173783553
scalar tlExample.node[20].veinsmobility minSpeed 0.33101254280773
scalar tlExample.node[20].veinsmobility maxSpeed 13.888686734424
scalar tlExample.node[20].veinsmobility totalDistance 904.30226803455
scalar tlExample.node[20].veinsmobility totalCO2Emission 241.02316570603
scalar tlExample.node[36].appl generatedWSMs 96
scalar tlExample.node[36].appl receivedWSMs 763
scalar tlExample.node[36].appl generatedBSMs 0
scalar tlExample.node[36].appl receivedBSMs 0
scalar tlExample.node[36].appl generatedWSAs 0
scalar tlExample.node[36].appl receivedWSAs 53
scalar tlExample.node[36].nic.phy80211p busyTime 0.0066067083809729
scalar tlExample.node[36].nic.mac1609_4 ReceivedUnicastPackets 0
scalar tlExample.node[36].nic.mac1609_4 ReceivedBroadcasts 816
scalar tlExample.node[36].nic.mac1609_4 SentPackets 96
scalar tlExample.node[36].nic.mac1609_4 SentAcknowledgements 0
scalar tlExample.node[36].nic.mac1609_4 RetriesExceeded 0
scalar tlExample.node[36].nic.mac1609_4 SNIRLostPackets 8145
scalar tlExample.node[36].nic.mac1609_4 RXTXLostPackets 1
scalar tlExample.node[36].nic.mac1609_4 TotalLostPackets 8146
scalar tlExample.node[36].nic.mac1609_4 DroppedPacketsInMac 0
scalar tlExample.node[36].nic.mac1609_4 TooLittleTime 0
scalar tlExample.node[36].nic.mac1609_4 TimesIntoBackoff 106
scalar tlExample.node[36].nic.mac1609_4 SlotsBackoff 138
scalar tlExample.node[36].nic.mac1609_4 NumInternalContention 0
scalar tlExample.node[36].nic.mac1609_4 totalBusyTime 0.442032
scalar tlExample.node[36].nic.mac1609_4 retriesExceeded:count 0
attr source org_car2x_veins_modules_mac_sigRetriesExceeded
scalar tlExample.node[36].nic.mac1609_4 sentAcks:count 0
attr source org_car2x_veins_modules_mac_sigSentAck
scalar tlExample.node[36].nic.mac1609_4 sentPackets:count 96
attr source org_car2x_veins_modules_mac_sigSentPacket
scalar tlExample.node[36].nic.mac1609_4 collisions:count 0
attr source org_car2x_veins_modules_mac_sigCollision
scalar tlExample.node[36].nic.mac1609_4 channelBusy:timeavg 0.0065888214728589
attr source org_car2x_veins_modules_mac_sigChannelBusy
scalar tlExample.node[36].veinsmobility startTime 5.1
scalar tlExample.node[36].veinsmobility totalTime 67
scalar tlExample.node[36].veinsmobility stopTime 72.188173783553
scalar tlExample.node[36].veinsmobility minSpeed 0.32874627179466
scalar tlExample.node[36].veinsmobility maxSpeed 13.889712886824
scalar tlExample.node[36].veinsmobility totalDistance 875.1460703494
scalar tlExample.node[36].veinsmobility totalCO2Emission 235.03941519616
scalar tlExample.node[52].appl generatedWSMs 93
scalar tlExample.node[52].appl receivedWSMs 765
scalar tlExample.node[52].appl generatedBSMs 0
scalar tlExample.node[52].appl receivedBSMs 0
scalar tlExample.node[52].appl generatedWSAs 0
scalar tlExample.node[52].appl receivedWSAs 52
scalar tlExample.node[52].nic.phy80211p busyTime 0.0066768879616439
scalar tlExample.node[52].nic.mac1609_4 ReceivedUnicastPackets 0
scalar tlExample.node[52].nic.mac1609_4 ReceivedBroadcasts 817
scalar tlExample.node[52].nic.mac1609_4 SentPackets 93
scalar tlExample.node[52].nic.mac1609_4 SentAcknowledgements 0
scalar tlExample.node[52].nic.mac1609_4 RetriesExceeded 0
scalar tlExample.node[52].nic.mac1609_4 SNIRLostPackets 7908
scalar tlExample.node[52].nic.mac1609_4 RXTXLostPackets 1
scalar tlExample.node[52].nic.mac1609_4 TotalLostPackets 7909
scalar tlExample.node[52].nic.mac1609_4 DroppedPacketsInMac 0
scalar tlExample.node[52].nic.mac1609_4 TooLittleTime 0
scalar tlExample.node[52].nic.mac1609_4 TimesIntoBackoff 100
scalar tlExample.node[52].nic.mac1609_4 SlotsBackoff 138
scalar tlExample.node[52].nic.mac1609_4 NumInternalContention 0
scalar tlExample.node[52].nic.mac1609_4 totalBusyTime 0.430687862177
scalar tlExample.node[52].nic.mac1609_4 retriesExceeded:count 0
attr source org_car2x_veins_modules_mac_sigRetriesExceeded
scalar tlExample.node[52].nic.mac1609_4 sentAcks:count 0
attr source org_car2x_veins_modules_mac_sigSentAck
scalar tlExample.node[52].nic.mac1609_4 sentPackets:count 93
attr source org_car2x_veins_modules_mac_sigSentPacket
scalar tlExample.node[52].nic.mac1609_4 collisions:count 0
attr source org_car2x_veins_modules_mac_sigCollision
scalar tlExample.node[52].nic.mac1609_4 channelBusy:timeavg 0.0066637564892192
attr source org_car2x_veins_modules_mac_sigChannelBusy
scalar tlExample.node[52].veinsmobility startTime 7.6
scalar tlExample.node[52].veinsmobility totalTime 64.5
scalar tlExample.node[52].veinsmobility stopTime 72.188173783553
scalar tlExample.node[52].veinsmobility minSpeed 0.32825125940726
scalar tlExample.node[52].veinsmobility maxSpeed 13.889830628699
scalar tlExample.node[52].veinsmobility totalDistance 830.90127360474
scalar tlExample.node[52].veinsmobility totalCO2Emission 227.11665782616
scalar tlExample.node[73].appl generatedWSMs 91
scalar tlExample.node[73].appl receivedWSMs 768
scalar tlExample.node[73].appl generatedBSMs 0
scalar tlExample.node[73].appl receivedBSMs 0
scalar tlExample.node[73].appl generatedWSAs 0
scalar tlExample.node[73].appl receivedWSAs 48
scalar tlExample.node[73].nic.phy80211p busyTime 0.0068466715705962
scalar tlExample.node[73].nic.mac1609_4 ReceivedUnicastPackets 0
scalar tlExample.node[73].nic.mac1609_4 ReceivedBroadcasts 816
scalar tlExample.node[73].nic.mac1609_4 SentPackets 91
scalar tlExample.node[73].nic.mac1609_4 SentAcknowledgements 0
scalar tlExample.node[73].nic.mac1609_4 RetriesExceeded 0
scalar tlExample.node[73].nic.mac1609_4 SNIRLostPackets 7764
scalar tlExample.node[73].nic.mac1609_4 RXTXLostPackets 1
scalar tlExample.node[73].nic.mac1609_4 TotalLostPackets 7765
scalar tlExample.node[73].nic.mac1609_4 DroppedPacketsInMac 0
scalar tlExample.node[73].nic.mac1609_4 TooLittleTime 0
scalar tlExample.node[73].nic.mac1609_4 TimesIntoBackoff 102
scalar tlExample.node[73].nic.mac1609_4 SlotsBackoff 140
scalar tlExample.node[73].nic.mac1609_4 NumInternalContention 0
scalar tlExample.node[73].nic.mac1609_4 totalBusyTime 0.423195
scalar tlExample.node[73].nic.mac1609_4 retriesExceeded:count 0
attr source org_car2x_veins_modules_mac_sigRetriesExceeded
scalar tlExample.node[73].nic.mac1609_4 sentAcks:count 0
attr source org_car2x_veins_modules_mac_sigSentAck
scalar tlExample.node[73].nic.mac1609_4 sentPackets:count 91
attr source org_car2x_veins_modules_mac_sigSentPacket
scalar tlExample.node[73].nic.mac1609_4 collisions:count 0
attr source org_car2x_veins_modules_mac_sigCollision
scalar tlExample.node[73].nic.mac1609_4 channelBusy:timeavg 0.0068380592628253
attr source org_car2x_veins_modules_mac_sigChannelBusy
scalar tlExample.node[73].veinsmobility startTime 10.3
scalar tlExample.node[73].veinsmobility totalTime 61.8
scalar tlExample.node[73].veinsmobility stopTime 72.188173783553
scalar tlExample.node[73].veinsmobility minSpeed 0.34904807708575
scalar tlExample.node[73].veinsmobility maxSpeed 13.889682341737
scalar tlExample.node[73].veinsmobility totalDistance 804.28161533911
scalar tlExample.node[73].veinsmobility totalCO2Emission 225.05128886285
scalar tlExample.node[91].appl generatedWSMs 83
scalar tlExample.node[91].appl receivedWSMs 777
scalar tlExample.node[91].appl generatedBSMs 0
scalar tlExample.node[91].appl receivedBSMs 0
scalar tlExample.node[91].appl generatedWSAs 0
scalar tlExample.node[91].appl receivedWSAs 45
scalar tlExample.node[91].nic.phy80211p busyTime 0.0069683907356413
scalar tlExample.node[91].nic.mac1609_4 ReceivedUnicastPackets 0
scalar tlExample.node[91].nic.mac1609_4 ReceivedBroadcasts 822
scalar tlExample.node[91].nic.mac1609_4 SentPackets 83
scalar tlExample.node[91].nic.mac1609_4 SentAcknowledgements 0
scalar tlExample.node[91].nic.mac1609_4 RetriesExceeded 0
scalar tlExample.node[91].nic.mac1609_4 SNIRLostPackets 7566
scalar tlExample.node[91].nic.mac1609_4 RXTXLostPackets 1
scalar tlExample.node[91].nic.mac1609_4 TotalLostPackets 7567
scalar tlExample.node[91].nic.mac1609_4 DroppedPacketsInMac 0
scalar tlExample.node[91].nic.mac1609_4 TooLittleTime 0
scalar tlExample.node[91].nic.mac1609_4 TimesIntoBackoff 90
scalar tlExample.node[91].nic.mac1609_4 SlotsBackoff 128
scalar tlExample.node[91].nic.mac1609_4 NumInternalContention 0
scalar tlExample.node[91].nic.mac1609_4 totalBusyTime 0.413251
scalar tlExample.node[91].nic.mac1609_4 retriesExceeded:count 0
attr source org_car2x_veins_modules_mac_sigRetriesExceeded
scalar tlExample.node[91].nic.mac1609_4 sentAcks:count 0
attr source org_car2x_veins_modules_mac_sigSentAck
scalar tlExample.node[91].nic.mac1609_4 sentPackets:count 83
attr source org_car2x_veins_modules_mac_sigSentPacket
scalar tlExample.node[91].nic.mac1609_4 collisions:count 0
attr source org_car2x_veins_modules_mac_sigCollision
scalar tlExample.node[91].nic.mac1609_4 channelBusy:timeavg 0.0069584729361457
attr source org_car2x_veins_modules_mac_sigChannelBusy
scalar tlExample.node[91].veinsmobility startTime 12.8
scalar tlExample.node[91].veinsmobility totalTime 59.3
scalar tlExample.node[91].veinsmobility stopTime 72.188173783553
scalar tlExample.node[91].veinsmobility minSpeed 0.34806252898765
scalar tlExample.node[91].veinsmobility maxSpeed 13.888725467047
scalar tlExample.node[91].veinsmobility totalDistance 766.16903739702
scalar tlExample.node[91].veinsmobility totalCO2Emission 215.11044659096
scalar tlExample.node[103].appl generatedWSMs 83
scalar tlExample.node[103].appl receivedWSMs 773
scalar tlExample.node[103].appl generatedBSMs 0
scalar tlExample.node[103].appl receivedBSMs 0
scalar tlExample.node[103].appl generatedWSAs 0
scalar tlExample.node[103].appl receivedWSAs 43
scalar tlExample.node[103].nic.phy80211p busyTime 0.0071153008260987
scalar tlExample.node[103].nic.mac1609_4 ReceivedUnicastPackets 0
scalar tlExample.node[103].nic.mac1609_4 ReceivedBroadcasts 816
scalar tlExample.node[103].nic.mac1609_4 SentPackets 83
scalar tlExample.node[103].nic.mac1609_4 SentAcknowledgements 0
scalar tlExample.node[103].nic.mac1609_4 RetriesExceeded 0
scalar tlExample.node[103].nic.mac1609_4 SNIRLostPackets 7409
scalar tlExample.node[103].nic.mac1609_4 RXTXLostPackets 0
scalar tlExample.node[103].nic.mac1609_4 TotalLostPackets 7409
scalar tlExample.node[103].nic.mac1609_4 DroppedPacketsInMac 0
scalar tlExample.node[103].nic.mac1609_4 TooLittleTime 2
scalar tlExample.node[103].nic.mac1609_4 TimesIntoBackoff 94
scalar tlExample.node[103].nic.mac1609_4 SlotsBackoff 137
scalar tlExample.node[103].nic.mac1609_4 NumInternalContention 0
scalar tlExample.node[103].nic.mac1609_4 totalBusyTime 0.405346837484
scalar tlExample.node[103].nic.mac1609_4 retriesExceeded:count 0
attr source org_car2x_veins_modules_mac_sigRetriesExceeded
scalar tlExample.node[103].nic.mac1609_4 sentAcks:count 0
attr source org_car2x_veins_modules_mac_sigSentAck
scalar tlExample.node[103].nic.mac1609_4 sentPackets:count 83
attr source org_car2x_veins_modules_mac_sigSentPacket
scalar tlExample.node[103].nic.mac1609_4 collisions:count 0
attr source org_car2x_veins_modules_mac_sigCollision
scalar tlExample.node[103].nic.mac1609_4 channelBusy:timeavg 0.0071069278166773
attr source org_car2x_veins_modules_mac_sigChannelBusy
scalar tlExample.node[103].veinsmobility startTime 15.2
scalar tlExample.node[103].veinsmobility totalTime 56.9
scalar tlExample.node[103].veinsmobility stopTime 72.188173783553
scalar tlExample.node[103].veinsmobility minSpeed 0.32295186916948
scalar tlExample.node[103].veinsmobility maxSpeed 13.889611112243
scalar tlExample.node[103].veinsmobility totalDistance 736.83609055979
scalar tlExample.node[103].veinsmobility totalCO2Emission 202.24246308251
scalar tlExample.node[114].appl generatedWSMs 69
scalar tlExample.node[114].appl receivedWSMs 780
scalar tlExample.node[114].appl generatedBSMs 0
scalar tlExample.node[114].appl receivedBSMs 0
scalar tlExample.node[114].appl generatedWSAs 0
scalar tlExample.node[114].appl receivedWSAs 42
scalar tlExample.node[114].nic.phy80211p busyTime 0.0072656293401311
scalar tlExample.node[114].nic.mac1609_4 ReceivedUnicastPackets 0
scalar tlExample.node[114].nic.mac1609_4 ReceivedBroadcasts 822
scalar tlExample.node[114].nic.mac1609_4 SentPackets 69
scalar tlExample.node[114].nic.mac1609_4 SentAcknowledgements 0
scalar tlExample.node[114].nic.mac1609_4 RetriesExceeded 0
scalar tlExample.node[114].nic.mac1609_4 SNIRLostPackets 7245
scalar tlExample.node[114].nic.mac1609_4 RXTXLostPackets 0
scalar tlExample.node[114].nic.mac1609_4 TotalLostPackets 7245
scalar tlExample.node[114].nic.mac1609_4 DroppedPacketsInMac 0
scalar tlExample.node[114].nic.mac1609_4 TooLittleTime 0
scalar tlExample.node[114].nic.mac1609_4 TimesIntoBackoff 78
scalar tlExample.node[114].nic.mac1609_4 SlotsBackoff 104
scalar tlExample.node[114].nic.mac1609_4 NumInternalContention 0
scalar tlExample.node[114].nic.mac1609_4 totalBusyTime 0.396405
scalar tlExample.node[114].nic.mac1609_4 retriesExceeded:count 0
attr source org_car2x_veins_modules_mac_sigRetriesExceeded
scalar tlExample.node[114].nic.mac1609_4 sentAcks:count 0
attr source org_car2x_veins_modules_mac_sigSentAck
scalar tlExample.node[114].nic.mac1609_4 sentPackets:count 69
attr source org_car2x_veins_modules_mac_sigSentPacket
scalar tlExample.node[114].nic.mac1609_4 collisions:count 0
attr source org_car2x_veins_modules_mac_sigCollision
scalar tlExample.node[114].nic.mac1609_4 channelBusy:timeavg 0.0072484592659627
attr source org_car2x_veins_modules_mac_sigChannelBusy
scalar tlExample.node[114].veinsmobility startTime 17.5
scalar tlExample.node[114].veinsmobility totalTime 54.6
scalar tlExample.node[114].veinsmobility stopTime 72.188173783553
scalar tlExample.node[114].veinsmobility minSpeed 0.34116984422319
scalar tlExample.node[114].veinsmobility maxSpeed 13.889142885685
scalar tlExample.node[114].veinsmobility totalDistance 701.50033523642
scalar tlExample.node[114].veinsmobility totalCO2Emission 192.97958644987
scalar tlExample.node[132].appl generatedWSMs 66
scalar tlExample.node[132].appl receivedWSMs 775
scalar tlExample.node[132].appl generatedBSMs 0
scalar tlExample.node[132].appl receivedBSMs 0
scalar tlExample.node[132].appl generatedWSAs 0
scalar tlExample.node[132].appl receivedWSAs 38
scalar tlExample.node[132].nic.phy80211p busyTime 0.0074465912835303
scalar tlExample.node[132].nic.mac1609_4 ReceivedUnicastPackets 0
scalar tlExample.node[132].nic.mac1609_4 ReceivedBroadcasts 813
scalar tlExample.node[132].nic.mac1609_4 SentPackets 66
scalar tlExample.node[132].nic.mac1609_4 SentAcknowledgements 0
scalar tlExample.node[132].nic.mac1609_4 RetriesExceeded 0
scalar tlExample.node[132].nic.mac1609_4 SNIRLostPackets 7082
scalar tlExample.node[132].nic.mac1609_4 RXTXLostPackets 2
scalar tlExample.node[132].nic.mac1609_4 TotalLostPackets 7084
scalar tlExample.node[132].nic.mac1609_4 DroppedPacketsInMac 0
scalar tlExample.node[132].nic.mac1609_4 TooLittleTime 0
scalar tlExample.node[132].nic.mac1609_4 TimesIntoBackoff 73
scalar tlExample.node[132].nic.mac1609_4 SlotsBackoff 94
scalar tlExample.node[132].nic.mac1609_4 NumInternalContention 0
scalar tlExample.node[132].nic.mac1609_4 totalBusyTime 0.387986082551
scalar tlExample.node[132].nic.mac1609_4 retriesExceeded:count 0
attr source org_car2x_veins_modules_mac_sigRetriesExceeded
scalar tlExample.node[132].nic.mac1609_4 sentAcks:count 0
attr source org_car2x_veins_modules_mac_sigSentAck
scalar tlExample.node[132].nic.mac1609_4 sentPackets:count 66
attr source org_car2x_veins_modules_mac_sigSentPacket
scalar tlExample.node[132].nic.mac1609_4 collisions:count 0
attr source org_car2x_veins_modules_mac_sigCollision
scalar tlExample.node[132].nic.mac1609_4 channelBusy:timeavg 0.0074306888790423
attr source org_car2x_veins_modules_mac_sigChannelBusy
scalar tlExample.node[132].veinsmobility startTime 20
scalar tlExample.node[132].veinsmobility totalTime 52.1
scalar tlExample.node[132].veinsmobility stopTime 72.188173783553
scalar tlExample.node[132].veinsmobility minSpeed 0.33443357994431
scalar tlExample.node[132].veinsmobility maxSpeed 13.888573670525
scalar tlExample.node[132].veinsmobility totalDistance 669.58869221415
scalar tlExample.node[132].veinsmobility totalCO2Emission 188.63471528351
scalar tlExample.node[148].appl generatedWSMs 66
scalar tlExample.node[148].appl receivedWSMs 761
scalar tlExample.node[148].appl generatedBSMs 0
scalar tlExample.node[148].appl receivedBSMs 0
scalar tlExample.node[148].appl generatedWSAs 0
scalar tlExample.node[148].appl receivedWSAs 37
scalar tlExample.node[148].nic.phy80211p busyTime 0.0075797513034105
scalar tlExample.node[148].nic.mac1609_4 ReceivedUnicastPackets 0
scalar tlExample.node[148].nic.mac1609_4 ReceivedBroadcasts 798
scalar tlExample.node[148].nic.mac1609_4 SentPackets 66
scalar tlExample.node[148].nic.mac1609_4 SentAcknowledgements 0
scalar tlExample.node[148].nic.mac1609_4 RetriesExceeded 0
scalar tlExample.node[148].nic.mac1609_4 SNIRLostPackets 6859
scalar tlExample.node[148].nic.mac1609_4 RXTXLostPackets 0
scalar tlExample.node[148].nic.mac1609_4 TotalLostPackets 6859
scalar tlExample.node[148].nic.mac1609_4 DroppedPacketsInMac 0
scalar tlExample.node[148].nic.mac1609_4 TooLittleTime 0
scalar tlExample.node[148].nic.mac1609_4 TimesIntoBackoff 76
scalar tlExample.node[148].nic.mac1609_4 SlotsBackoff 100
scalar tlExample.node[148].nic.mac1609_4 NumInternalContention 0
scalar tlExample.node[148].nic.mac1609_4 totalBusyTime 0.375874
scalar tlExample.node[148].nic.mac1609_4 retriesExceeded:count 0
attr source org_car2x_veins_modules_mac_sigRetriesExceeded
scalar tlExample.node[148].nic.mac1609_4 sentAcks:count 0
attr source org_car2x_veins_modules_mac_sigSentAck
scalar tlExample.node[148].nic.mac1609_4 sentPackets:count 66
attr source org_car2x_veins_modules_mac_sigSentPacket
scalar tlExample.node[148].nic.mac1609_4 collisions:count 0
attr source org_car2x_veins_modules_mac_sigCollision
scalar tlExample.node[148].nic.mac1609_4 channelBusy:timeavg 0.0075646571684707
attr source org_car2x_veins_modules_mac_sigChannelBusy
scalar tlExample.node[148].veinsmobility startTime 22.5
scalar tlExample.node[148].veinsmobility totalTime 49.6
scalar tlExample.node[148].veinsmobility stopTime 72.188173783553
scalar tlExample.node[148].veinsmobility minSpeed 0.33157199141919
scalar tlExample.node[148].veinsmobility maxSpeed 13.886573554992
scalar tlExample.node[148].veinsmobility totalDistance 628.67728562705
scalar tlExample.node[148].veinsmobility totalCO2Emission 177.47769838395
scalar tlExample.node[3].appl generatedWSMs 101
scalar tlExample.node[3].appl receivedWSMs 1316
scalar tlExample.node[3].appl generatedBSMs 0
scalar tlExample.node[3].appl receivedBSMs 0
scalar tlExample.node[3].appl generatedWSAs 0
scalar tlExample.node[3].appl receivedWSAs 60
scalar tlExample.node[3].nic.phy80211p busyTime 0.0052491272859281
scalar tlExample.node[3].nic.mac1609_4 ReceivedUnicastPackets 0
scalar tlExample.node[3].nic.mac1609_4 ReceivedBroadcasts 1376
scalar tlExample.node[3].nic.mac1609_4 SentPackets 101
scalar tlExample.node[3].nic.mac1609_4 SentAcknowledgements 0
scalar tlExample.node[3].nic.mac1609_4 RetriesExceeded 0
scalar tlExample.node[3].nic.mac1609_4 SNIRLostPackets 6254
scalar tlExample.node[3].nic.mac1609_4 RXTXLostPackets 3
scalar tlExample.node[3].nic.mac1609_4 TotalLostPackets 6257
scalar tlExample.node[3].nic.mac1609_4 DroppedPacketsInMac 0
scalar tlExample.node[3].nic.mac1609_4 TooLittleTime 2
scalar tlExample.node[3].nic.mac1609_4 TimesIntoBackoff 108
scalar tlExample.node[3].nic.mac1609_4 SlotsBackoff 160
scalar tlExample.node[3].nic.mac1609_4 NumInternalContention 0
scalar tlExample.node[3].nic.mac1609_4 totalBusyTime 0.380110606419
scalar tlExample.node[3].nic.mac1609_4 retriesExceeded:count 0
attr source org_car2x_veins_modules_mac_sigRetriesExceeded
scalar tlExample.node[3].nic.mac1609_4 sentAcks:count 0
attr source org_car2x_veins_modules_mac_sigSentAck
scalar tlExample.node[3].nic.mac1609_4 sentPackets:count 101
attr source org_car2x_veins_modules_mac_sigSentPacket
scalar tlExample.node[3].nic.mac1609_4 collisions:count 0
attr source org_car2x_veins_modules_mac_sigCollision
scalar tlExample.node[3].nic.mac1609_4 channelBusy:timeavg 0.0052701260152557
attr source org_car2x_veins_modules_mac_sigChannelBusy
scalar tlExample.node[3].veinsmobility startTime 0.1
scalar tlExample.node[3].veinsmobility totalTime 72
scalar tlExample.node[3].veinsmobility stopTime 72.188173783553
scalar tlExample.node[3].veinsmobility minSpeed 0.32496837222599
scalar tlExample.node[3].veinsmobility maxSpeed 13.889941745703
scalar tlExample.node[3].veinsmobility totalDistance 941.4949297723
scalar tlExample.node[3].veinsmobility totalCO2Emission 253.81280949259
scalar tlExample.node[21].appl generatedWSMs 107
scalar tlExample.node[21].appl receivedWSMs 1285
scalar tlExample.node[21].appl generatedBSMs 0
scalar tlExample.node[21].appl receivedBSMs 0
scalar tlExample.node[21].appl generatedWSAs 0
scalar tlExample.node[21].appl receivedWSAs 55
scalar tlExample.node[21].nic.phy80211p busyTime 0.0053349294832008
scalar tlExample.node[21].nic.mac1609_4 ReceivedUnicastPackets 0
scalar tlExample.node[21].nic.mac1609_4 ReceivedBroadcasts 1340
scalar tlExample.node[21].nic.mac1609_4 SentPackets 107
scalar tlExample.node[21].nic.mac1609_4 SentAcknowledgements 0
scalar tlExample.node[21].nic.mac1609_4 RetriesExceeded 0
scalar tlExample.node[21].nic.mac1609_4 SNIRLostPackets 6152
scalar tlExample.node[21].nic.mac1609_4 RXTXLostPackets 0
scalar tlExample.node[21].nic.mac1609_4 TotalLostPackets 6152
scalar tlExample.node[21].nic.mac1609_4 DroppedPacketsInMac 0
scalar tlExample.node[21].nic.mac1609_4 TooLittleTime 0
scalar tlExample.node[21].nic.mac1609_4 TimesIntoBackoff 119
scalar tlExample.node[21].nic.mac1609_4 SlotsBackoff 153
scalar tlExample.node[21].nic.mac1609_4 NumInternalContention 0
scalar tlExample.node[21].nic.mac1609_4 totalBusyTime 0.373275
scalar tlExample.node[21].nic.mac1609_4 retriesExceeded:count 0
attr source org_car2x_veins_modules_mac_sigRetriesExceeded
scalar tlExample.node[21].nic.mac1609_4 sentAcks:count 0
attr source org_car2x_veins_modules_mac_sigSentAck
scalar tlExample.node[21].nic.mac1609_4 sentPackets:count 107
attr source org_car2x_veins_modules_mac_sigSentPacket
scalar tlExample.node[21].nic.mac1609_4 collisions:count 0
attr source org_car2x_veins_modules_mac_sigCollision
scalar tlExample.node[21].nic.mac1609_4 channelBusy:timeavg 0.0053646763671532
attr source org_car2x_veins_modules_mac_sigChannelBusy
scalar tlExample.node[21].veinsmobility startTime 2.6
scalar tlExample.node[21].veinsmobility totalTime 69.5
scalar tlExample.node[21].veinsmobility stopTime 72.188173783553
[...]
scalar tlExample.rsu[4].nic.mac1609_4 NumInternalContention 0
scalar tlExample.rsu[4].nic.mac1609_4 totalBusyTime 0.463944344772
scalar tlExample.rsu[4].nic.mac1609_4 retriesExceeded:count 0
attr source org_car2x_veins_modules_mac_sigRetriesExceeded
scalar tlExample.rsu[4].nic.mac1609_4 sentAcks:count 0
attr source org_car2x_veins_modules_mac_sigSentAck
scalar tlExample.rsu[4].nic.mac1609_4 sentPackets:count 72
attr source org_car2x_veins_modules_mac_sigSentPacket
scalar tlExample.rsu[4].nic.mac1609_4 collisions:count 0
attr source org_car2x_veins_modules_mac_sigCollision
scalar tlExample.rsu[4].nic.mac1609_4 channelBusy:timeavg 0.006426874659041
attr source org_car2x_veins_modules_mac_sigChannelBusy
scalar tlExample.rsu[5].appl generatedWSMs 0
scalar tlExample.rsu[5].appl receivedWSMs 1
scalar tlExample.rsu[5].appl generatedBSMs 0
scalar tlExample.rsu[5].appl receivedBSMs 0
scalar tlExample.rsu[5].appl generatedWSAs 72
scalar tlExample.rsu[5].appl receivedWSAs 0
scalar tlExample.rsu[5].nic.phy80211p busyTime 0.0091467613792238
scalar tlExample.rsu[5].nic.mac1609_4 ReceivedUnicastPackets 0
scalar tlExample.rsu[5].nic.mac1609_4 ReceivedBroadcasts 1
scalar tlExample.rsu[5].nic.mac1609_4 SentPackets 72
scalar tlExample.rsu[5].nic.mac1609_4 SentAcknowledgements 0
scalar tlExample.rsu[5].nic.mac1609_4 RetriesExceeded 0
scalar tlExample.rsu[5].nic.mac1609_4 SNIRLostPackets 13394
scalar tlExample.rsu[5].nic.mac1609_4 RXTXLostPackets 0
scalar tlExample.rsu[5].nic.mac1609_4 TotalLostPackets 13394
scalar tlExample.rsu[5].nic.mac1609_4 DroppedPacketsInMac 0
scalar tlExample.rsu[5].nic.mac1609_4 TooLittleTime 0
scalar tlExample.rsu[5].nic.mac1609_4 TimesIntoBackoff 72
scalar tlExample.rsu[5].nic.mac1609_4 SlotsBackoff 127
scalar tlExample.rsu[5].nic.mac1609_4 NumInternalContention 0
scalar tlExample.rsu[5].nic.mac1609_4 totalBusyTime 0.649896
scalar tlExample.rsu[5].nic.mac1609_4 retriesExceeded:count 0
attr source org_car2x_veins_modules_mac_sigRetriesExceeded
scalar tlExample.rsu[5].nic.mac1609_4 sentAcks:count 0
attr source org_car2x_veins_modules_mac_sigSentAck
scalar tlExample.rsu[5].nic.mac1609_4 sentPackets:count 72
attr source org_car2x_veins_modules_mac_sigSentPacket
scalar tlExample.rsu[5].nic.mac1609_4 collisions:count 0
attr source org_car2x_veins_modules_mac_sigCollision
scalar tlExample.rsu[5].nic.mac1609_4 channelBusy:timeavg 0.0090034559096599
attr source org_car2x_veins_modules_mac_sigChannelBusy
scalar tlExample.rsu[6].appl generatedWSMs 0
scalar tlExample.rsu[6].appl receivedWSMs 5
scalar tlExample.rsu[6].appl generatedBSMs 0
scalar tlExample.rsu[6].appl receivedBSMs 0
scalar tlExample.rsu[6].appl generatedWSAs 72
scalar tlExample.rsu[6].appl receivedWSAs 0
scalar tlExample.rsu[6].nic.phy80211p busyTime 0.009293045728121
scalar tlExample.rsu[6].nic.mac1609_4 ReceivedUnicastPackets 0
scalar tlExample.rsu[6].nic.mac1609_4 ReceivedBroadcasts 5
scalar tlExample.rsu[6].nic.mac1609_4 SentPackets 72
scalar tlExample.rsu[6].nic.mac1609_4 SentAcknowledgements 0
scalar tlExample.rsu[6].nic.mac1609_4 RetriesExceeded 0
scalar tlExample.rsu[6].nic.mac1609_4 SNIRLostPackets 13610
scalar tlExample.rsu[6].nic.mac1609_4 RXTXLostPackets 0
scalar tlExample.rsu[6].nic.mac1609_4 TotalLostPackets 13610
scalar tlExample.rsu[6].nic.mac1609_4 DroppedPacketsInMac 0
scalar tlExample.rsu[6].nic.mac1609_4 TooLittleTime 0
scalar tlExample.rsu[6].nic.mac1609_4 TimesIntoBackoff 72
scalar tlExample.rsu[6].nic.mac1609_4 SlotsBackoff 108
scalar tlExample.rsu[6].nic.mac1609_4 NumInternalContention 0
scalar tlExample.rsu[6].nic.mac1609_4 totalBusyTime 0.660312
scalar tlExample.rsu[6].nic.mac1609_4 retriesExceeded:count 0
attr source org_car2x_veins_modules_mac_sigRetriesExceeded
scalar tlExample.rsu[6].nic.mac1609_4 sentAcks:count 0
attr source org_car2x_veins_modules_mac_sigSentAck
scalar tlExample.rsu[6].nic.mac1609_4 sentPackets:count 72
attr source org_car2x_veins_modules_mac_sigSentPacket
scalar tlExample.rsu[6].nic.mac1609_4 collisions:count 0
attr source org_car2x_veins_modules_mac_sigCollision
scalar tlExample.rsu[6].nic.mac1609_4 channelBusy:timeavg 0.0091477138232932
attr source org_car2x_veins_modules_mac_sigChannelBusy
scalar tlExample.rsu[7].appl generatedWSMs 0
scalar tlExample.rsu[7].appl receivedWSMs 858
scalar tlExample.rsu[7].appl generatedBSMs 0
scalar tlExample.rsu[7].appl receivedBSMs 0
scalar tlExample.rsu[7].appl generatedWSAs 72
scalar tlExample.rsu[7].appl receivedWSAs 0
scalar tlExample.rsu[7].nic.phy80211p busyTime 0.0066765506694362
scalar tlExample.rsu[7].nic.mac1609_4 ReceivedUnicastPackets 0
scalar tlExample.rsu[7].nic.mac1609_4 ReceivedBroadcasts 858
scalar tlExample.rsu[7].nic.mac1609_4 SentPackets 72
scalar tlExample.rsu[7].nic.mac1609_4 SentAcknowledgements 0
scalar tlExample.rsu[7].nic.mac1609_4 RetriesExceeded 0
scalar tlExample.rsu[7].nic.mac1609_4 SNIRLostPackets 8847
scalar tlExample.rsu[7].nic.mac1609_4 RXTXLostPackets 0
scalar tlExample.rsu[7].nic.mac1609_4 TotalLostPackets 8847
scalar tlExample.rsu[7].nic.mac1609_4 DroppedPacketsInMac 0
scalar tlExample.rsu[7].nic.mac1609_4 TooLittleTime 0
scalar tlExample.rsu[7].nic.mac1609_4 TimesIntoBackoff 72
scalar tlExample.rsu[7].nic.mac1609_4 SlotsBackoff 105
scalar tlExample.rsu[7].nic.mac1609_4 NumInternalContention 0
scalar tlExample.rsu[7].nic.mac1609_4 totalBusyTime 0.480435084738
scalar tlExample.rsu[7].nic.mac1609_4 retriesExceeded:count 0
attr source org_car2x_veins_modules_mac_sigRetriesExceeded
scalar tlExample.rsu[7].nic.mac1609_4 sentAcks:count 0
attr source org_car2x_veins_modules_mac_sigSentAck
scalar tlExample.rsu[7].nic.mac1609_4 sentPackets:count 72
attr source org_car2x_veins_modules_mac_sigSentPacket
scalar tlExample.rsu[7].nic.mac1609_4 collisions:count 0
attr source org_car2x_veins_modules_mac_sigCollision
scalar tlExample.rsu[7].nic.mac1609_4 channelBusy:timeavg 0.0066486663892765
attr source org_car2x_veins_modules_mac_sigChannelBusy
scalar tlExample.rsu[8].appl generatedWSMs 0
scalar tlExample.rsu[8].appl receivedWSMs 821
scalar tlExample.rsu[8].appl generatedBSMs 0
scalar tlExample.rsu[8].appl receivedBSMs 0
scalar tlExample.rsu[8].appl generatedWSAs 72
scalar tlExample.rsu[8].appl receivedWSAs 0
scalar tlExample.rsu[8].nic.phy80211p busyTime 0.0064225478454422
scalar tlExample.rsu[8].nic.mac1609_4 ReceivedUnicastPackets 0
scalar tlExample.rsu[8].nic.mac1609_4 ReceivedBroadcasts 821
scalar tlExample.rsu[8].nic.mac1609_4 SentPackets 72
scalar tlExample.rsu[8].nic.mac1609_4 SentAcknowledgements 0
scalar tlExample.rsu[8].nic.mac1609_4 RetriesExceeded 0
scalar tlExample.rsu[8].nic.mac1609_4 SNIRLostPackets 8501
scalar tlExample.rsu[8].nic.mac1609_4 RXTXLostPackets 0
scalar tlExample.rsu[8].nic.mac1609_4 TotalLostPackets 8501
scalar tlExample.rsu[8].nic.mac1609_4 DroppedPacketsInMac 0
scalar tlExample.rsu[8].nic.mac1609_4 TooLittleTime 0
scalar tlExample.rsu[8].nic.mac1609_4 TimesIntoBackoff 72
scalar tlExample.rsu[8].nic.mac1609_4 SlotsBackoff 121
scalar tlExample.rsu[8].nic.mac1609_4 NumInternalContention 0
scalar tlExample.rsu[8].nic.mac1609_4 totalBusyTime 0.462086114841
scalar tlExample.rsu[8].nic.mac1609_4 retriesExceeded:count 0
attr source org_car2x_veins_modules_mac_sigRetriesExceeded
scalar tlExample.rsu[8].nic.mac1609_4 sentAcks:count 0
attr source org_car2x_veins_modules_mac_sigSentAck
scalar tlExample.rsu[8].nic.mac1609_4 sentPackets:count 72
attr source org_car2x_veins_modules_mac_sigSentPacket
scalar tlExample.rsu[8].nic.mac1609_4 collisions:count 0
attr source org_car2x_veins_modules_mac_sigCollision
scalar tlExample.rsu[8].nic.mac1609_4 channelBusy:timeavg 0.0063944542653485
attr source org_car2x_veins_modules_mac_sigChannelBusy
scalar tlExample.rsu[9].appl generatedWSMs 0
scalar tlExample.rsu[9].appl receivedWSMs 0
scalar tlExample.rsu[9].appl generatedBSMs 0
scalar tlExample.rsu[9].appl receivedBSMs 0
scalar tlExample.rsu[9].appl generatedWSAs 72
scalar tlExample.rsu[9].appl receivedWSAs 0
scalar tlExample.rsu[9].nic.phy80211p busyTime 0.009096891714827
scalar tlExample.rsu[9].nic.mac1609_4 ReceivedUnicastPackets 0
scalar tlExample.rsu[9].nic.mac1609_4 ReceivedBroadcasts 0
scalar tlExample.rsu[9].nic.mac1609_4 SentPackets 72
scalar tlExample.rsu[9].nic.mac1609_4 SentAcknowledgements 0
scalar tlExample.rsu[9].nic.mac1609_4 RetriesExceeded 0
scalar tlExample.rsu[9].nic.mac1609_4 SNIRLostPackets 13320
scalar tlExample.rsu[9].nic.mac1609_4 RXTXLostPackets 0
scalar tlExample.rsu[9].nic.mac1609_4 TotalLostPackets 13320
scalar tlExample.rsu[9].nic.mac1609_4 DroppedPacketsInMac 0
scalar tlExample.rsu[9].nic.mac1609_4 TooLittleTime 0
scalar tlExample.rsu[9].nic.mac1609_4 TimesIntoBackoff 72
scalar tlExample.rsu[9].nic.mac1609_4 SlotsBackoff 108
scalar tlExample.rsu[9].nic.mac1609_4 NumInternalContention 0
scalar tlExample.rsu[9].nic.mac1609_4 totalBusyTime 0.646392
scalar tlExample.rsu[9].nic.mac1609_4 retriesExceeded:count 0
attr source org_car2x_veins_modules_mac_sigRetriesExceeded
scalar tlExample.rsu[9].nic.mac1609_4 sentAcks:count 0
attr source org_car2x_veins_modules_mac_sigSentAck
scalar tlExample.rsu[9].nic.mac1609_4 sentPackets:count 72
attr source org_car2x_veins_modules_mac_sigSentPacket
scalar tlExample.rsu[9].nic.mac1609_4 collisions:count 0
attr source org_car2x_veins_modules_mac_sigCollision
scalar tlExample.rsu[9].nic.mac1609_4 channelBusy:timeavg 0.0089548877190098
attr source org_car2x_veins_modules_mac_sigChannelBusy
scalar tlExample.rsu[10].appl generatedWSMs 0
scalar tlExample.rsu[10].appl receivedWSMs 4
scalar tlExample.rsu[10].appl generatedBSMs 0
scalar tlExample.rsu[10].appl receivedBSMs 0
scalar tlExample.rsu[10].appl generatedWSAs 72
scalar tlExample.rsu[10].appl receivedWSAs 0
scalar tlExample.rsu[10].nic.phy80211p busyTime 0.0091527457389514
scalar tlExample.rsu[10].nic.mac1609_4 ReceivedUnicastPackets 0
scalar tlExample.rsu[10].nic.mac1609_4 ReceivedBroadcasts 4
scalar tlExample.rsu[10].nic.mac1609_4 SentPackets 72
scalar tlExample.rsu[10].nic.mac1609_4 SentAcknowledgements 0
scalar tlExample.rsu[10].nic.mac1609_4 RetriesExceeded 0
scalar tlExample.rsu[10].nic.mac1609_4 SNIRLostPackets 13400
scalar tlExample.rsu[10].nic.mac1609_4 RXTXLostPackets 0
scalar tlExample.rsu[10].nic.mac1609_4 TotalLostPackets 13400
scalar tlExample.rsu[10].nic.mac1609_4 DroppedPacketsInMac 0
scalar tlExample.rsu[10].nic.mac1609_4 TooLittleTime 0
scalar tlExample.rsu[10].nic.mac1609_4 TimesIntoBackoff 72
scalar tlExample.rsu[10].nic.mac1609_4 SlotsBackoff 111
scalar tlExample.rsu[10].nic.mac1609_4 NumInternalContention 0
scalar tlExample.rsu[10].nic.mac1609_4 totalBusyTime 0.650136
scalar tlExample.rsu[10].nic.mac1609_4 retriesExceeded:count 0
attr source org_car2x_veins_modules_mac_sigRetriesExceeded
scalar tlExample.rsu[10].nic.mac1609_4 sentAcks:count 0
attr source org_car2x_veins_modules_mac_sigSentAck
scalar tlExample.rsu[10].nic.mac1609_4 sentPackets:count 72
attr source org_car2x_veins_modules_mac_sigSentPacket
scalar tlExample.rsu[10].nic.mac1609_4 collisions:count 0
attr source org_car2x_veins_modules_mac_sigCollision
scalar tlExample.rsu[10].nic.mac1609_4 channelBusy:timeavg 0.0090067283998978
attr source org_car2x_veins_modules_mac_sigChannelBusy
scalar tlExample.rsu[11].appl generatedWSMs 0
scalar tlExample.rsu[11].appl receivedWSMs 818
scalar tlExample.rsu[11].appl generatedBSMs 0
scalar tlExample.rsu[11].appl receivedBSMs 0
scalar tlExample.rsu[11].appl generatedWSAs 72
scalar tlExample.rsu[11].appl receivedWSAs 0
scalar tlExample.rsu[11].nic.phy80211p busyTime 0.0066712312385672
scalar tlExample.rsu[11].nic.mac1609_4 ReceivedUnicastPackets 0
scalar tlExample.rsu[11].nic.mac1609_4 ReceivedBroadcasts 818
scalar tlExample.rsu[11].nic.mac1609_4 SentPackets 72
scalar tlExample.rsu[11].nic.mac1609_4 SentAcknowledgements 0
scalar tlExample.rsu[11].nic.mac1609_4 RetriesExceeded 0
scalar tlExample.rsu[11].nic.mac1609_4 SNIRLostPackets 8879
scalar tlExample.rsu[11].nic.mac1609_4 RXTXLostPackets 0
scalar tlExample.rsu[11].nic.mac1609_4 TotalLostPackets 8879
scalar tlExample.rsu[11].nic.mac1609_4 DroppedPacketsInMac 0
scalar tlExample.rsu[11].nic.mac1609_4 TooLittleTime 0
scalar tlExample.rsu[11].nic.mac1609_4 TimesIntoBackoff 72
scalar tlExample.rsu[11].nic.mac1609_4 SlotsBackoff 116
scalar tlExample.rsu[11].nic.mac1609_4 NumInternalContention 0
scalar tlExample.rsu[11].nic.mac1609_4 totalBusyTime 0.479832
scalar tlExample.rsu[11].nic.mac1609_4 retriesExceeded:count 0
attr source org_car2x_veins_modules_mac_sigRetriesExceeded
scalar tlExample.rsu[11].nic.mac1609_4 sentAcks:count 0
attr source org_car2x_veins_modules_mac_sigSentAck
scalar tlExample.rsu[11].nic.mac1609_4 sentPackets:count 72
attr source org_car2x_veins_modules_mac_sigSentPacket
scalar tlExample.rsu[11].nic.mac1609_4 collisions:count 0
attr source org_car2x_veins_modules_mac_sigCollision
scalar tlExample.rsu[11].nic.mac1609_4 channelBusy:timeavg 0.0066469613352275
attr source org_car2x_veins_modules_mac_sigChannelBusy
scalar tlExample.rsu[12].appl generatedWSMs 0
scalar tlExample.rsu[12].appl receivedWSMs 1576
scalar tlExample.rsu[12].appl generatedBSMs 0
scalar tlExample.rsu[12].appl receivedBSMs 0
scalar tlExample.rsu[12].appl generatedWSAs 72
scalar tlExample.rsu[12].appl receivedWSAs 0
scalar tlExample.rsu[12].nic.phy80211p busyTime 0.0054670450756006
scalar tlExample.rsu[12].nic.mac1609_4 ReceivedUnicastPackets 0
scalar tlExample.rsu[12].nic.mac1609_4 ReceivedBroadcasts 1576
scalar tlExample.rsu[12].nic.mac1609_4 SentPackets 72
scalar tlExample.rsu[12].nic.mac1609_4 SentAcknowledgements 0
scalar tlExample.rsu[12].nic.mac1609_4 RetriesExceeded 0
scalar tlExample.rsu[12].nic.mac1609_4 SNIRLostPackets 6357
scalar tlExample.rsu[12].nic.mac1609_4 RXTXLostPackets 0
scalar tlExample.rsu[12].nic.mac1609_4 TotalLostPackets 6357
scalar tlExample.rsu[12].nic.mac1609_4 DroppedPacketsInMac 0
scalar tlExample.rsu[12].nic.mac1609_4 TooLittleTime 0
scalar tlExample.rsu[12].nic.mac1609_4 TimesIntoBackoff 72
scalar tlExample.rsu[12].nic.mac1609_4 SlotsBackoff 106
scalar tlExample.rsu[12].nic.mac1609_4 NumInternalContention 0
scalar tlExample.rsu[12].nic.mac1609_4 totalBusyTime 0.395271427619
scalar tlExample.rsu[12].nic.mac1609_4 retriesExceeded:count 0
attr source org_car2x_veins_modules_mac_sigRetriesExceeded
scalar tlExample.rsu[12].nic.mac1609_4 sentAcks:count 0
attr source org_car2x_veins_modules_mac_sigSentAck
scalar tlExample.rsu[12].nic.mac1609_4 sentPackets:count 72
attr source org_car2x_veins_modules_mac_sigSentPacket
scalar tlExample.rsu[12].nic.mac1609_4 collisions:count 0
attr source org_car2x_veins_modules_mac_sigCollision
scalar tlExample.rsu[12].nic.mac1609_4 channelBusy:timeavg 0.0054748390061921
attr source org_car2x_veins_modules_mac_sigChannelBusy
scalar tlExample.rsu[13].appl generatedWSMs 0
scalar tlExample.rsu[13].appl receivedWSMs 777
scalar tlExample.rsu[13].appl generatedBSMs 0
scalar tlExample.rsu[13].appl receivedBSMs 0
scalar tlExample.rsu[13].appl generatedWSAs 72
scalar tlExample.rsu[13].appl receivedWSAs 0
scalar tlExample.rsu[13].nic.phy80211p busyTime 0.0065841255580876
scalar tlExample.rsu[13].nic.mac1609_4 ReceivedUnicastPackets 0
scalar tlExample.rsu[13].nic.mac1609_4 ReceivedBroadcasts 777
scalar tlExample.rsu[13].nic.mac1609_4 SentPackets 72
scalar tlExample.rsu[13].nic.mac1609_4 SentAcknowledgements 0
scalar tlExample.rsu[13].nic.mac1609_4 RetriesExceeded 0
scalar tlExample.rsu[13].nic.mac1609_4 SNIRLostPackets 8788
scalar tlExample.rsu[13].nic.mac1609_4 RXTXLostPackets 0
scalar tlExample.rsu[13].nic.mac1609_4 TotalLostPackets 8788
scalar tlExample.rsu[13].nic.mac1609_4 DroppedPacketsInMac 0
scalar tlExample.rsu[13].nic.mac1609_4 TooLittleTime 0
scalar tlExample.rsu[13].nic.mac1609_4 TimesIntoBackoff 72
scalar tlExample.rsu[13].nic.mac1609_4 SlotsBackoff 114
scalar tlExample.rsu[13].nic.mac1609_4 NumInternalContention 0
scalar tlExample.rsu[13].nic.mac1609_4 totalBusyTime 0.47375687005
scalar tlExample.rsu[13].nic.mac1609_4 retriesExceeded:count 0
attr source org_car2x_veins_modules_mac_sigRetriesExceeded
scalar tlExample.rsu[13].nic.mac1609_4 sentAcks:count 0
attr source org_car2x_veins_modules_mac_sigSentAck
scalar tlExample.rsu[13].nic.mac1609_4 sentPackets:count 72
attr source org_car2x_veins_modules_mac_sigSentPacket
scalar tlExample.rsu[13].nic.mac1609_4 collisions:count 0
attr source org_car2x_veins_modules_mac_sigCollision
scalar tlExample.rsu[13].nic.mac1609_4 channelBusy:timeavg 0.0065613997603563
attr source org_car2x_veins_modules_mac_sigChannelBusy
scalar tlExample.rsu[14].appl generatedWSMs 0
scalar tlExample.rsu[14].appl receivedWSMs 766
scalar tlExample.rsu[14].appl generatedBSMs 0
scalar tlExample.rsu[14].appl receivedBSMs 0
scalar tlExample.rsu[14].appl generatedWSAs 72
scalar tlExample.rsu[14].appl receivedWSAs 0
scalar tlExample.rsu[14].nic.phy80211p busyTime 0.0065927696332497
scalar tlExample.rsu[14].nic.mac1609_4 ReceivedUnicastPackets 0
scalar tlExample.rsu[14].nic.mac1609_4 ReceivedBroadcasts 766
scalar tlExample.rsu[14].nic.mac1609_4 SentPackets 72
scalar tlExample.rsu[14].nic.mac1609_4 SentAcknowledgements 0
scalar tlExample.rsu[14].nic.mac1609_4 RetriesExceeded 0
scalar tlExample.rsu[14].nic.mac1609_4 SNIRLostPackets 8813
scalar tlExample.rsu[14].nic.mac1609_4 RXTXLostPackets 0
scalar tlExample.rsu[14].nic.mac1609_4 TotalLostPackets 8813
scalar tlExample.rsu[14].nic.mac1609_4 DroppedPacketsInMac 0
scalar tlExample.rsu[14].nic.mac1609_4 TooLittleTime 0
scalar tlExample.rsu[14].nic.mac1609_4 TimesIntoBackoff 72
scalar tlExample.rsu[14].nic.mac1609_4 SlotsBackoff 107
scalar tlExample.rsu[14].nic.mac1609_4 NumInternalContention 0
scalar tlExample.rsu[14].nic.mac1609_4 totalBusyTime 0.474936
scalar tlExample.rsu[14].nic.mac1609_4 retriesExceeded:count 0
attr source org_car2x_veins_modules_mac_sigRetriesExceeded
scalar tlExample.rsu[14].nic.mac1609_4 sentAcks:count 0
attr source org_car2x_veins_modules_mac_sigSentAck
scalar tlExample.rsu[14].nic.mac1609_4 sentPackets:count 72
attr source org_car2x_veins_modules_mac_sigSentPacket
scalar tlExample.rsu[14].nic.mac1609_4 collisions:count 0
attr source org_car2x_veins_modules_mac_sigCollision
scalar tlExample.rsu[14].nic.mac1609_4 channelBusy:timeavg 0.0065791385916479
attr source org_car2x_veins_modules_mac_sigChannelBusy
scalar tlExample.rsu[15].appl generatedWSMs 0
scalar tlExample.rsu[15].appl receivedWSMs 1626
scalar tlExample.rsu[15].appl generatedBSMs 0
scalar tlExample.rsu[15].appl receivedBSMs 0
scalar tlExample.rsu[15].appl generatedWSAs 72
scalar tlExample.rsu[15].appl receivedWSAs 0
scalar tlExample.rsu[15].nic.phy80211p busyTime 0.0055760934084148
scalar tlExample.rsu[15].nic.mac1609_4 ReceivedUnicastPackets 0
scalar tlExample.rsu[15].nic.mac1609_4 ReceivedBroadcasts 1626
scalar tlExample.rsu[15].nic.mac1609_4 SentPackets 72
scalar tlExample.rsu[15].nic.mac1609_4 SentAcknowledgements 0
scalar tlExample.rsu[15].nic.mac1609_4 RetriesExceeded 0
scalar tlExample.rsu[15].nic.mac1609_4 SNIRLostPackets 6472
scalar tlExample.rsu[15].nic.mac1609_4 RXTXLostPackets 0
scalar tlExample.rsu[15].nic.mac1609_4 TotalLostPackets 6472
scalar tlExample.rsu[15].nic.mac1609_4 DroppedPacketsInMac 0
scalar tlExample.rsu[15].nic.mac1609_4 TooLittleTime 0
scalar tlExample.rsu[15].nic.mac1609_4 TimesIntoBackoff 72
scalar tlExample.rsu[15].nic.mac1609_4 SlotsBackoff 104
scalar tlExample.rsu[15].nic.mac1609_4 NumInternalContention 0
scalar tlExample.rsu[15].nic.mac1609_4 totalBusyTime 0.403368
scalar tlExample.rsu[15].nic.mac1609_4 retriesExceeded:count 0
attr source org_car2x_veins_modules_mac_sigRetriesExceeded
scalar tlExample.rsu[15].nic.mac1609_4 sentAcks:count 0
attr source org_car2x_veins_modules_mac_sigSentAck
scalar tlExample.rsu[15].nic.mac1609_4 sentPackets:count 72
attr source org_car2x_veins_modules_mac_sigSentPacket
scalar tlExample.rsu[15].nic.mac1609_4 collisions:count 0
attr source org_car2x_veins_modules_mac_sigCollision
scalar tlExample.rsu[15].nic.mac1609_4 channelBusy:timeavg 0.0055877296634407
attr source org_car2x_veins_modules_mac_sigChannelBusy

