file 14351739 1643912660                                        
version 2
run Default-0-20220203-19:19:39-13519
attr configname Default
attr datetime 20220203-19:19:39
attr experiment Default
attr inifile omnetpp.ini
attr iterationvars ""
attr iterationvarsf ""
attr measurement ""
attr network tlExample
attr processid 13519
attr repetition 0
attr replication #0
attr resultdir results
attr runnumber 0
attr seedset 0
param *.playgroundSizeX 5000m
param *.playgroundSizeY 5000m
param *.playgroundSizeZ 50m
param *.annotations.draw true
param *.obstacles.obstacles "xmldoc(\"config.xml\", \"//AnalogueModel[@type='SimpleObstacleShadowing']/obstacles\")"
param *.manager.updateInterval 0.1s
param *.manager.host "\"localhost\""
param *.manager.port 9999
param *.manager.autoShutdown true
param *.manager.launchConfig "xmldoc(\"traffic_light_example.launchd.xml\")"
param *.rsu[0].mobility.x 825
param *.rsu[0].mobility.y 825
param *.rsu[0].mobility.z 3
param *.rsu[1].mobility.x 1625
param *.rsu[1].mobility.y 825
param *.rsu[1].mobility.z 3
param *.rsu[2].mobility.x 2425
param *.rsu[2].mobility.y 825
param *.rsu[2].mobility.z 3
param *.rsu[3].mobility.x 3225
param *.rsu[3].mobility.y 825
param *.rsu[3].mobility.z 3
param *.rsu[4].mobility.x 825
param *.rsu[4].mobility.y 1625
param *.rsu[4].mobility.z 3
param *.rsu[5].mobility.x 1625
param *.rsu[5].mobility.y 1625
param *.rsu[5].mobility.z 3
param *.rsu[6].mobility.x 2425
param *.rsu[6].mobility.y 1625
param *.rsu[6].mobility.z 3
param *.rsu[7].mobility.x 3225
param *.rsu[7].mobility.y 1625
param *.rsu[7].mobility.z 3
param *.rsu[8].mobility.x 825
param *.rsu[8].mobility.y 2425
param *.rsu[8].mobility.z 3
param *.rsu[9].mobility.x 1625
param *.rsu[9].mobility.y 2425
param *.rsu[9].mobility.z 3
param *.rsu[10].mobility.x 2425
param *.rsu[10].mobility.y 2425
param *.rsu[10].mobility.z 3
param *.rsu[11].mobility.x 3225
param *.rsu[11].mobility.y 2425
param *.rsu[11].mobility.z 3
param *.rsu[12].mobility.x 825
param *.rsu[12].mobility.y 3225
param *.rsu[12].mobility.z 3
param *.rsu[13].mobility.x 1625
param *.rsu[13].mobility.y 3225
param *.rsu[13].mobility.z 3
param *.rsu[14].mobility.x 2425
param *.rsu[14].mobility.y 3225
param *.rsu[14].mobility.z 3
param *.rsu[15].mobility.x 3225
param *.rsu[15].mobility.y 3225
param *.rsu[15].mobility.z 3
param *.rsu[*].applType "\"TlRSU\""
param *.rsu[*].appl.headerLength "80 bit"
param *.rsu[*].appl.sendBeacons false
param *.rsu[*].appl.dataOnSch true
param *.rsu[*].appl.beaconInterval 1s
param *.rsu[*].appl.beaconUserPriority 7
param *.rsu[*].appl.dataUserPriority 5
param *.rsu[*].nic.phy80211p.antennaOffsetZ "0 m"
param *.connectionManager.sendDirect true
param *.connectionManager.maxInterfDist 2600m
param *.connectionManager.drawMaxIntfDist false
param *.**.nic.mac1609_4.useServiceChannel true
param *.**.nic.mac1609_4.txPower 20mW
param *.**.nic.mac1609_4.bitrate 6Mbps
param *.**.nic.phy80211p.minPowerLevel -110dBm
param *.**.nic.phy80211p.useNoiseFloor true
param *.**.nic.phy80211p.noiseFloor -98dBm
param *.**.nic.phy80211p.decider "xmldoc(\"config.xml\")"
param *.**.nic.phy80211p.analogueModels "xmldoc(\"config.xml\")"
param *.**.nic.phy80211p.usePropagationDelay true
param *.**.nic.phy80211p.antenna "xmldoc(\"antenna.xml\", \"/root/Antenna[@id='monopole']\")"
param *.node[*].nic.phy80211p.antennaOffsetY "0 m"
param *.node[*].nic.phy80211p.antennaOffsetZ "1.895 m"
param *.node[*].applType "\"TlVehicle\""
param *.node[*].appl.headerLength "80 bit"
param *.node[*].appl.sendBeacons false
param *.node[*].appl.dataOnSch true
param *.node[*].appl.beaconInterval 1s
param *.node[*].veinsmobility.x 0
param *.node[*].veinsmobility.y 0
param *.node[*].veinsmobility.z 0
param *.node[*].veinsmobility.setHostSpeed true
param *.node[*0].veinsmobility.accidentCount 0
param *.node[*0].veinsmobility.accidentStart 73s
param *.node[*0].veinsmobility.accidentDuration 50s

vector 0 tlExample.node[0].veinsmobility posx ETV
vector 1 tlExample.node[0].veinsmobility posy ETV
vector 2 tlExample.node[1].veinsmobility posx ETV
vector 3 tlExample.node[1].veinsmobility posy ETV
vector 4 tlExample.node[2].veinsmobility posx ETV
vector 5 tlExample.node[2].veinsmobility posy ETV
vector 6 tlExample.node[3].veinsmobility posx ETV
vector 7 tlExample.node[3].veinsmobility posy ETV
vector 8 tlExample.node[4].veinsmobility posx ETV
vector 9 tlExample.node[4].veinsmobility posy ETV
vector 10 tlExample.node[5].veinsmobility posx ETV
vector 11 tlExample.node[5].veinsmobility posy ETV
vector 12 tlExample.node[6].veinsmobility posx ETV
vector 13 tlExample.node[6].veinsmobility posy ETV
vector 14 tlExample.node[7].veinsmobility posx ETV
vector 15 tlExample.node[7].veinsmobility posy ETV
vector 16 tlExample.node[8].veinsmobility posx ETV
vector 17 tlExample.node[8].veinsmobility posy ETV
vector 18 tlExample.node[9].veinsmobility posx ETV
vector 19 tlExample.node[9].veinsmobility posy ETV
vector 20 tlExample.node[10].veinsmobility posx ETV
vector 21 tlExample.node[10].veinsmobility posy ETV
vector 22 tlExample.node[11].veinsmobility posx ETV
vector 23 tlExample.node[11].veinsmobility posy ETV
vector 24 tlExample.node[12].veinsmobility posx ETV
vector 25 tlExample.node[12].veinsmobility posy ETV
vector 26 tlExample.node[13].veinsmobility posx ETV
vector 27 tlExample.node[13].veinsmobility posy ETV
vector 28 tlExample.node[14].veinsmobility posx ETV
vector 29 tlExample.node[14].veinsmobility posy ETV
vector 30 tlExample.node[15].veinsmobility posx ETV
vector 31 tlExample.node[15].veinsmobility posy ETV
vector 32 tlExample.node[0].veinsmobility speed ETV
vector 33 tlExample.node[1].veinsmobility speed ETV
vector 34 tlExample.node[2].veinsmobility speed ETV
vector 35 tlExample.node[3].veinsmobility speed ETV
vector 36 tlExample.node[4].veinsmobility speed ETV
vector 37 tlExample.node[5].veinsmobility speed ETV
vector 38 tlExample.node[6].veinsmobility speed ETV
vector 39 tlExample.node[7].veinsmobility speed ETV
vector 40 tlExample.node[8].veinsmobility speed ETV
vector 41 tlExample.node[9].veinsmobility speed ETV
vector 42 tlExample.node[10].veinsmobility speed ETV
vector 43 tlExample.node[11].veinsmobility speed ETV
vector 44 tlExample.node[12].veinsmobility speed ETV
vector 45 tlExample.node[13].veinsmobility speed ETV
vector 46 tlExample.node[14].veinsmobility speed ETV
vector 47 tlExample.node[15].veinsmobility speed ETV
vector 48 tlExample.node[0].veinsmobility acceleration ETV
vector 49 tlExample.node[0].veinsmobility co2emission ETV
vector 50 tlExample.node[1].veinsmobility acceleration ETV
vector 51 tlExample.node[1].veinsmobility co2emission ETV
vector 52 tlExample.node[2].veinsmobility acceleration ETV
vector 53 tlExample.node[2].veinsmobility co2emission ETV
vector 54 tlExample.node[3].veinsmobility acceleration ETV
vector 55 tlExample.node[3].veinsmobility co2emission ETV
vector 56 tlExample.node[4].veinsmobility acceleration ETV
vector 57 tlExample.node[4].veinsmobility co2emission ETV
vector 58 tlExample.node[5].veinsmobility acceleration ETV
vector 59 tlExample.node[5].veinsmobility co2emission ETV
vector 60 tlExample.node[6].veinsmobility acceleration ETV
vector 61 tlExample.node[6].veinsmobility co2emission ETV
vector 62 tlExample.node[7].veinsmobility acceleration ETV
vector 63 tlExample.node[7].veinsmobility co2emission ETV
vector 64 tlExample.node[8].veinsmobility acceleration ETV
vector 65 tlExample.node[8].veinsmobility co2emission ETV
vector 66 tlExample.node[9].veinsmobility acceleration ETV
vector 67 tlExample.node[9].veinsmobility co2emission ETV
vector 68 tlExample.node[10].veinsmobility acceleration ETV
vector 69 tlExample.node[10].veinsmobility co2emission ETV
vector 70 tlExample.node[11].veinsmobility acceleration ETV
vector 71 tlExample.node[11].veinsmobility co2emission ETV
vector 72 tlExample.node[12].veinsmobility acceleration ETV
vector 73 tlExample.node[12].veinsmobility co2emission ETV
vector 74 tlExample.node[13].veinsmobility acceleration ETV
vector 75 tlExample.node[13].veinsmobility co2emission ETV
vector 76 tlExample.node[14].veinsmobility acceleration ETV
vector 77 tlExample.node[14].veinsmobility co2emission ETV
vector 78 tlExample.node[15].veinsmobility acceleration ETV
vector 79 tlExample.node[15].veinsmobility co2emission ETV
vector 80 tlExample.node[16].veinsmobility posx ETV
vector 81 tlExample.node[16].veinsmobility posy ETV
vector 82 tlExample.node[17].veinsmobility posx ETV
vector 83 tlExample.node[17].veinsmobility posy ETV
vector 84 tlExample.node[18].veinsmobility posx ETV
vector 85 tlExample.node[18].veinsmobility posy ETV
vector 86 tlExample.node[16].veinsmobility speed ETV
vector 87 tlExample.node[19].veinsmobility posx ETV
vector 88 tlExample.node[19].veinsmobility posy ETV
vector 89 tlExample.node[20].veinsmobility posx ETV
vector 90 tlExample.node[20].veinsmobility posy ETV
vector 91 tlExample.node[21].veinsmobility posx ETV
vector 92 tlExample.node[21].veinsmobility posy ETV
vector 93 tlExample.node[22].veinsmobility posx ETV
vector 94 tlExample.node[22].veinsmobility posy ETV
vector 95 tlExample.node[23].veinsmobility posx ETV
vector 96 tlExample.node[23].veinsmobility posy ETV
vector 97 tlExample.node[24].veinsmobility posx ETV
vector 98 tlExample.node[24].veinsmobility posy ETV
vector 99 tlExample.node[25].veinsmobility posx ETV
vector 100 tlExample.node[25].veinsmobility posy ETV
vector 101 tlExample.node[26].veinsmobility posx ETV
vector 102 tlExample.node[26].veinsmobility posy ETV
vector 103 tlExample.node[16].veinsmobility acceleration ETV
vector 104 tlExample.node[16].veinsmobility co2emission ETV
vector 105 tlExample.node[17].veinsmobility speed ETV
vector 106 tlExample.node[18].veinsmobility speed ETV
vector 107 tlExample.node[27].veinsmobility posx ETV
vector 108 tlExample.node[27].veinsmobility posy ETV
vector 109 tlExample.node[28].veinsmobility posx ETV
vector 110 tlExample.node[28].veinsmobility posy ETV
vector 111 tlExample.node[29].veinsmobility posx ETV
vector 112 tlExample.node[29].veinsmobility posy ETV
vector 113 tlExample.node[30].veinsmobility posx ETV
vector 114 tlExample.node[30].veinsmobility posy ETV
vector 115 tlExample.node[17].veinsmobility acceleration ETV
vector 116 tlExample.node[17].veinsmobility co2emission ETV
vector 117 tlExample.node[18].veinsmobility acceleration ETV
vector 118 tlExample.node[18].veinsmobility co2emission ETV
vector 119 tlExample.node[19].veinsmobility speed ETV
vector 120 tlExample.node[20].veinsmobility speed ETV
vector 121 tlExample.node[21].veinsmobility speed ETV
vector 122 tlExample.node[22].veinsmobility speed ETV
vector 123 tlExample.node[23].veinsmobility speed ETV
vector 124 tlExample.node[24].veinsmobility speed ETV
vector 125 tlExample.node[25].veinsmobility speed ETV
vector 126 tlExample.node[26].veinsmobility speed ETV
vector 127 tlExample.node[31].veinsmobility posx ETV
vector 128 tlExample.node[31].veinsmobility posy ETV
vector 129 tlExample.node[19].veinsmobility acceleration ETV
vector 130 tlExample.node[19].veinsmobility co2emission ETV
vector 131 tlExample.node[20].veinsmobility acceleration ETV
vector 132 tlExample.node[20].veinsmobility co2emission ETV
vector 133 tlExample.node[21].veinsmobility acceleration ETV
vector 134 tlExample.node[21].veinsmobility co2emission ETV
vector 135 tlExample.node[22].veinsmobility acceleration ETV
vector 136 tlExample.node[22].veinsmobility co2emission ETV
vector 137 tlExample.node[23].veinsmobility acceleration ETV
vector 138 tlExample.node[23].veinsmobility co2emission ETV
vector 139 tlExample.node[24].veinsmobility acceleration ETV
vector 140 tlExample.node[24].veinsmobility co2emission ETV
vector 141 tlExample.node[25].veinsmobility acceleration ETV
vector 142 tlExample.node[25].veinsmobility co2emission ETV
vector 143 tlExample.node[26].veinsmobility acceleration ETV
vector 144 tlExample.node[26].veinsmobility co2emission ETV
vector 145 tlExample.node[27].veinsmobility speed ETV
vector 146 tlExample.node[28].veinsmobility speed ETV
vector 147 tlExample.node[29].veinsmobility speed ETV
vector 148 tlExample.node[30].veinsmobility speed ETV
vector 149 tlExample.node[27].veinsmobility acceleration ETV
vector 150 tlExample.node[27].veinsmobility co2emission ETV
vector 151 tlExample.node[28].veinsmobility acceleration ETV
vector 152 tlExample.node[28].veinsmobility co2emission ETV
vector 153 tlExample.node[29].veinsmobility acceleration ETV
vector 154 tlExample.node[29].veinsmobility co2emission ETV
vector 155 tlExample.node[30].veinsmobility acceleration ETV
vector 156 tlExample.node[30].veinsmobility co2emission ETV
vector 157 tlExample.node[31].veinsmobility speed ETV
vector 158 tlExample.node[31].veinsmobility acceleration ETV
vector 159 tlExample.node[31].veinsmobility co2emission ETV
vector 160 tlExample.node[32].veinsmobility posx ETV
vector 161 tlExample.node[32].veinsmobility posy ETV
vector 162 tlExample.node[33].veinsmobility posx ETV
vector 163 tlExample.node[33].veinsmobility posy ETV
vector 164 tlExample.node[34].veinsmobility posx ETV
vector 165 tlExample.node[34].veinsmobility posy ETV
vector 166 tlExample.node[32].veinsmobility speed ETV
vector 167 tlExample.node[33].veinsmobility speed ETV
vector 168 tlExample.node[35].veinsmobility posx ETV
vector 169 tlExample.node[35].veinsmobility posy ETV
vector 170 tlExample.node[36].veinsmobility posx ETV
vector 171 tlExample.node[36].veinsmobility posy ETV
vector 172 tlExample.node[37].veinsmobility posx ETV
vector 173 tlExample.node[37].veinsmobility posy ETV
vector 174 tlExample.node[38].veinsmobility posx ETV
vector 175 tlExample.node[38].veinsmobility posy ETV
vector 176 tlExample.node[39].veinsmobility posx ETV
vector 177 tlExample.node[39].veinsmobility posy ETV
vector 178 tlExample.node[40].veinsmobility posx ETV
vector 179 tlExample.node[40].veinsmobility posy ETV
vector 180 tlExample.node[41].veinsmobility posx ETV
vector 181 tlExample.node[41].veinsmobility posy ETV
vector 182 tlExample.node[42].veinsmobility posx ETV
vector 183 tlExample.node[42].veinsmobility posy ETV
vector 184 tlExample.node[32].veinsmobility acceleration ETV
vector 185 tlExample.node[32].veinsmobility co2emission ETV
vector 186 tlExample.node[33].veinsmobility acceleration ETV
vector 187 tlExample.node[33].veinsmobility co2emission ETV
vector 188 tlExample.node[34].veinsmobility speed ETV
vector 189 tlExample.node[43].veinsmobility posx ETV
vector 190 tlExample.node[43].veinsmobility posy ETV
vector 191 tlExample.node[44].veinsmobility posx ETV
vector 192 tlExample.node[44].veinsmobility posy ETV
vector 193 tlExample.node[34].veinsmobility acceleration ETV
vector 194 tlExample.node[34].veinsmobility co2emission ETV
vector 195 tlExample.node[35].veinsmobility speed ETV
vector 196 tlExample.node[36].veinsmobility speed ETV
vector 197 tlExample.node[37].veinsmobility speed ETV
vector 198 tlExample.node[38].veinsmobility speed ETV
vector 199 tlExample.node[39].veinsmobility speed ETV
vector 200 tlExample.node[40].veinsmobility speed ETV
vector 201 tlExample.node[41].veinsmobility speed ETV
vector 202 tlExample.node[42].veinsmobility speed ETV
vector 203 tlExample.node[45].veinsmobility posx ETV
vector 204 tlExample.node[45].veinsmobility posy ETV
vector 205 tlExample.node[35].veinsmobility acceleration ETV
vector 206 tlExample.node[35].veinsmobility co2emission ETV
vector 207 tlExample.node[36].veinsmobility acceleration ETV
vector 208 tlExample.node[36].veinsmobility co2emission ETV
vector 209 tlExample.node[37].veinsmobility acceleration ETV
vector 210 tlExample.node[37].veinsmobility co2emission ETV
vector 211 tlExample.node[38].veinsmobility acceleration ETV
vector 212 tlExample.node[38].veinsmobility co2emission ETV
vector 213 tlExample.node[39].veinsmobility acceleration ETV
vector 214 tlExample.node[39].veinsmobility co2emission ETV
vector 215 tlExample.node[40].veinsmobility acceleration ETV
vector 216 tlExample.node[40].veinsmobility co2emission ETV
vector 217 tlExample.node[41].veinsmobility acceleration ETV
vector 218 tlExample.node[41].veinsmobility co2emission ETV
vector 219 tlExample.node[42].veinsmobility acceleration ETV
vector 220 tlExample.node[42].veinsmobility co2emission ETV
vector 221 tlExample.node[43].veinsmobility speed ETV
vector 222 tlExample.node[44].veinsmobility speed ETV
vector 223 tlExample.node[46].veinsmobility posx ETV
vector 224 tlExample.node[46].veinsmobility posy ETV
vector 225 tlExample.node[47].veinsmobility posx ETV
vector 226 tlExample.node[47].veinsmobility posy ETV
vector 227 tlExample.node[43].veinsmobility acceleration ETV
vector 228 tlExample.node[43].veinsmobility co2emission ETV
vector 229 tlExample.node[44].veinsmobility acceleration ETV
vector 230 tlExample.node[44].veinsmobility co2emission ETV
vector 231 tlExample.node[45].veinsmobility speed ETV
vector 232 tlExample.node[45].veinsmobility acceleration ETV
vector 233 tlExample.node[45].veinsmobility co2emission ETV
vector 234 tlExample.node[46].veinsmobility speed ETV
vector 235 tlExample.node[47].veinsmobility speed ETV
vector 236 tlExample.node[46].veinsmobility acceleration ETV
vector 237 tlExample.node[46].veinsmobility co2emission ETV
vector 238 tlExample.node[47].veinsmobility acceleration ETV
vector 239 tlExample.node[47].veinsmobility co2emission ETV
vector 240 tlExample.node[48].veinsmobility posx ETV
vector 241 tlExample.node[48].veinsmobility posy ETV
vector 242 tlExample.node[49].veinsmobility posx ETV
vector 243 tlExample.node[49].veinsmobility posy ETV
vector 244 tlExample.node[48].veinsmobility speed ETV
vector 245 tlExample.node[49].veinsmobility speed ETV
vector 246 tlExample.node[50].veinsmobility posx ETV
vector 247 tlExample.node[50].veinsmobility posy ETV
vector 248 tlExample.node[48].veinsmobility acceleration ETV
vector 249 tlExample.node[48].veinsmobility co2emission ETV
vector 250 tlExample.node[49].veinsmobility acceleration ETV
vector 251 tlExample.node[49].veinsmobility co2emission ETV
vector 252 tlExample.node[51].veinsmobility posx ETV
vector 253 tlExample.node[51].veinsmobility posy ETV
vector 254 tlExample.node[52].veinsmobility posx ETV
vector 255 tlExample.node[52].veinsmobility posy ETV
vector 256 tlExample.node[53].veinsmobility posx ETV
vector 257 tlExample.node[53].veinsmobility posy ETV
vector 258 tlExample.node[54].veinsmobility posx ETV
vector 259 tlExample.node[54].veinsmobility posy ETV
vector 260 tlExample.node[55].veinsmobility posx ETV
vector 261 tlExample.node[55].veinsmobility posy ETV
vector 262 tlExample.node[56].veinsmobility posx ETV
vector 263 tlExample.node[56].veinsmobility posy ETV
vector 264 tlExample.node[50].veinsmobility speed ETV
vector 265 tlExample.node[57].veinsmobility posx ETV
vector 266 tlExample.node[57].veinsmobility posy ETV
vector 267 tlExample.node[58].veinsmobility posx ETV
vector 268 tlExample.node[58].veinsmobility posy ETV
vector 269 tlExample.node[59].veinsmobility posx ETV
vector 270 tlExample.node[59].veinsmobility posy ETV
vector 271 tlExample.node[60].veinsmobility posx ETV
vector 272 tlExample.node[60].veinsmobility posy ETV
vector 273 tlExample.node[50].veinsmobility acceleration ETV
vector 274 tlExample.node[50].veinsmobility co2emission ETV
vector 275 tlExample.node[51].veinsmobility speed ETV
vector 276 tlExample.node[52].veinsmobility speed ETV
vector 277 tlExample.node[53].veinsmobility speed ETV
vector 278 tlExample.node[54].veinsmobility speed ETV
vector 279 tlExample.node[55].veinsmobility speed ETV
vector 280 tlExample.node[56].veinsmobility speed ETV
vector 281 tlExample.node[51].veinsmobility acceleration ETV
vector 282 tlExample.node[51].veinsmobility co2emission ETV
vector 283 tlExample.node[52].veinsmobility acceleration ETV
vector 284 tlExample.node[52].veinsmobility co2emission ETV
vector 285 tlExample.node[53].veinsmobility acceleration ETV
vector 286 tlExample.node[53].veinsmobility co2emission ETV
vector 287 tlExample.node[54].veinsmobility acceleration ETV
vector 288 tlExample.node[54].veinsmobility co2emission ETV
vector 289 tlExample.node[55].veinsmobility acceleration ETV
vector 290 tlExample.node[55].veinsmobility co2emission ETV
vector 291 tlExample.node[56].veinsmobility acceleration ETV
vector 292 tlExample.node[56].veinsmobility co2emission ETV
vector 293 tlExample.node[57].veinsmobility speed ETV
vector 294 tlExample.node[58].veinsmobility speed ETV
vector 295 tlExample.node[59].veinsmobility speed ETV
vector 296 tlExample.node[60].veinsmobility speed ETV
vector 297 tlExample.node[61].veinsmobility posx ETV
vector 298 tlExample.node[61].veinsmobility posy ETV
vector 299 tlExample.node[62].veinsmobility posx ETV
vector 300 tlExample.node[62].veinsmobility posy ETV
vector 301 tlExample.node[63].veinsmobility posx ETV
vector 302 tlExample.node[63].veinsmobility posy ETV
vector 303 tlExample.node[57].veinsmobility acceleration ETV
vector 304 tlExample.node[57].veinsmobility co2emission ETV
vector 305 tlExample.node[58].veinsmobility acceleration ETV
vector 306 tlExample.node[58].veinsmobility co2emission ETV
vector 307 tlExample.node[59].veinsmobility acceleration ETV
vector 308 tlExample.node[59].veinsmobility co2emission ETV
vector 309 tlExample.node[60].veinsmobility acceleration ETV
vector 310 tlExample.node[60].veinsmobility co2emission ETV
vector 311 tlExample.node[61].veinsmobility speed ETV
vector 312 tlExample.node[62].veinsmobility speed ETV
vector 313 tlExample.node[63].veinsmobility speed ETV
vector 314 tlExample.node[61].veinsmobility acceleration ETV
vector 315 tlExample.node[61].veinsmobility co2emission ETV
vector 316 tlExample.node[62].veinsmobility acceleration ETV
vector 317 tlExample.node[62].veinsmobility co2emission ETV
vector 318 tlExample.node[63].veinsmobility acceleration ETV
vector 319 tlExample.node[63].veinsmobility co2emission ETV
vector 320 tlExample.node[64].veinsmobility posx ETV
vector 321 tlExample.node[64].veinsmobility posy ETV
vector 322 tlExample.node[65].veinsmobility posx ETV
vector 323 tlExample.node[65].veinsmobility posy ETV
vector 324 tlExample.node[66].veinsmobility posx ETV
vector 325 tlExample.node[66].veinsmobility posy ETV
vector 326 tlExample.node[67].veinsmobility posx ETV
vector 327 tlExample.node[67].veinsmobility posy ETV
vector 328 tlExample.node[64].veinsmobility speed ETV
vector 329 tlExample.node[65].veinsmobility speed ETV
vector 330 tlExample.node[66].veinsmobility speed ETV
vector 331 tlExample.node[68].veinsmobility posx ETV
vector 332 tlExample.node[68].veinsmobility posy ETV
vector 333 tlExample.node[69].veinsmobility posx ETV
vector 334 tlExample.node[69].veinsmobility posy ETV
vector 335 tlExample.node[70].veinsmobility posx ETV
vector 336 tlExample.node[70].veinsmobility posy ETV
vector 337 tlExample.node[71].veinsmobility posx ETV
vector 338 tlExample.node[71].veinsmobility posy ETV
vector 339 tlExample.node[64].veinsmobility acceleration ETV
vector 340 tlExample.node[64].veinsmobility co2emission ETV
vector 341 tlExample.node[65].veinsmobility acceleration ETV
vector 342 tlExample.node[65].veinsmobility co2emission ETV
vector 343 tlExample.node[66].veinsmobility acceleration ETV
vector 344 tlExample.node[66].veinsmobility co2emission ETV
vector 345 tlExample.node[67].veinsmobility speed ETV
vector 346 tlExample.node[72].veinsmobility posx ETV
vector 347 tlExample.node[72].veinsmobility posy ETV
vector 348 tlExample.node[67].veinsmobility acceleration ETV
vector 349 tlExample.node[67].veinsmobility co2emission ETV
vector 350 tlExample.node[68].veinsmobility speed ETV
vector 351 tlExample.node[69].veinsmobility speed ETV
vector 352 tlExample.node[70].veinsmobility speed ETV
vector 353 tlExample.node[71].veinsmobility speed ETV
vector 354 tlExample.node[73].veinsmobility posx ETV
vector 355 tlExample.node[73].veinsmobility posy ETV
vector 356 tlExample.node[74].veinsmobility posx ETV
vector 357 tlExample.node[74].veinsmobility posy ETV
vector 358 tlExample.node[75].veinsmobility posx ETV
vector 359 tlExample.node[75].veinsmobility posy ETV
vector 360 tlExample.node[76].veinsmobility posx ETV
vector 361 tlExample.node[76].veinsmobility posy ETV
vector 362 tlExample.node[68].veinsmobility acceleration ETV
vector 363 tlExample.node[68].veinsmobility co2emission ETV
vector 364 tlExample.node[69].veinsmobility acceleration ETV
vector 365 tlExample.node[69].veinsmobility co2emission ETV
vector 366 tlExample.node[70].veinsmobility acceleration ETV
vector 367 tlExample.node[70].veinsmobility co2emission ETV
vector 368 tlExample.node[71].veinsmobility acceleration ETV
vector 369 tlExample.node[71].veinsmobility co2emission ETV
vector 370 tlExample.node[72].veinsmobility speed ETV
vector 371 tlExample.node[77].veinsmobility posx ETV
vector 372 tlExample.node[77].veinsmobility posy ETV
vector 373 tlExample.node[78].veinsmobility posx ETV
vector 374 tlExample.node[78].veinsmobility posy ETV
vector 375 tlExample.node[79].veinsmobility posx ETV
vector 376 tlExample.node[79].veinsmobility posy ETV
vector 377 tlExample.node[72].veinsmobility acceleration ETV
vector 378 tlExample.node[72].veinsmobility co2emission ETV
vector 379 tlExample.node[73].veinsmobility speed ETV
vector 380 tlExample.node[74].veinsmobility speed ETV
vector 381 tlExample.node[75].veinsmobility speed ETV
vector 382 tlExample.node[76].veinsmobility speed ETV
vector 383 tlExample.node[73].veinsmobility acceleration ETV
vector 384 tlExample.node[73].veinsmobility co2emission ETV
vector 385 tlExample.node[74].veinsmobility acceleration ETV
vector 386 tlExample.node[74].veinsmobility co2emission ETV
vector 387 tlExample.node[75].veinsmobility acceleration ETV
vector 388 tlExample.node[75].veinsmobility co2emission ETV
vector 389 tlExample.node[76].veinsmobility acceleration ETV
vector 390 tlExample.node[76].veinsmobility co2emission ETV
vector 391 tlExample.node[77].veinsmobility speed ETV
vector 392 tlExample.node[78].veinsmobility speed ETV
vector 393 tlExample.node[79].veinsmobility speed ETV
vector 394 tlExample.node[77].veinsmobility acceleration ETV
vector 395 tlExample.node[77].veinsmobility co2emission ETV
vector 396 tlExample.node[78].veinsmobility acceleration ETV
vector 397 tlExample.node[78].veinsmobility co2emission ETV
vector 398 tlExample.node[79].veinsmobility acceleration ETV
vector 399 tlExample.node[79].veinsmobility co2emission ETV
vector 400 tlExample.node[80].veinsmobility posx ETV
vector 401 tlExample.node[80].veinsmobility posy ETV
vector 402 tlExample.node[81].veinsmobility posx ETV
vector 403 tlExample.node[81].veinsmobility posy ETV
vector 404 tlExample.node[82].veinsmobility posx ETV
vector 405 tlExample.node[82].veinsmobility posy ETV
vector 406 tlExample.node[83].veinsmobility posx ETV
vector 407 tlExample.node[83].veinsmobility posy ETV
vector 408 tlExample.node[84].veinsmobility posx ETV
vector 409 tlExample.node[84].veinsmobility posy ETV
vector 410 tlExample.node[80].veinsmobility speed ETV
vector 411 tlExample.node[85].veinsmobility posx ETV
vector 412 tlExample.node[85].veinsmobility posy ETV
vector 413 tlExample.node[86].veinsmobility posx ETV
vector 414 tlExample.node[86].veinsmobility posy ETV
vector 415 tlExample.node[87].veinsmobility posx ETV
vector 416 tlExample.node[87].veinsmobility posy ETV
vector 417 tlExample.node[80].veinsmobility acceleration ETV
vector 418 tlExample.node[80].veinsmobility co2emission ETV
vector 419 tlExample.node[81].veinsmobility speed ETV
vector 420 tlExample.node[82].veinsmobility speed ETV
vector 421 tlExample.node[83].veinsmobility speed ETV
vector 422 tlExample.node[84].veinsmobility speed ETV
vector 423 tlExample.node[88].veinsmobility posx ETV
vector 424 tlExample.node[88].veinsmobility posy ETV
vector 425 tlExample.node[89].veinsmobility posx ETV
vector 426 tlExample.node[89].veinsmobility posy ETV
vector 427 tlExample.node[90].veinsmobility posx ETV
vector 428 tlExample.node[90].veinsmobility posy ETV
vector 429 tlExample.node[81].veinsmobility acceleration ETV
vector 430 tlExample.node[81].veinsmobility co2emission ETV
vector 431 tlExample.node[82].veinsmobility acceleration ETV
vector 432 tlExample.node[82].veinsmobility co2emission ETV
vector 433 tlExample.node[83].veinsmobility acceleration ETV
vector 434 tlExample.node[83].veinsmobility co2emission ETV
vector 435 tlExample.node[84].veinsmobility acceleration ETV
vector 436 tlExample.node[84].veinsmobility co2emission ETV
vector 437 tlExample.node[85].veinsmobility speed ETV
vector 438 tlExample.node[86].veinsmobility speed ETV
vector 439 tlExample.node[87].veinsmobility speed ETV
vector 440 tlExample.node[91].veinsmobility posx ETV
vector 441 tlExample.node[91].veinsmobility posy ETV
vector 442 tlExample.node[92].veinsmobility posx ETV
vector 443 tlExample.node[92].veinsmobility posy ETV
vector 444 tlExample.node[85].veinsmobility acceleration ETV
vector 445 tlExample.node[85].veinsmobility co2emission ETV
vector 446 tlExample.node[86].veinsmobility acceleration ETV
vector 447 tlExample.node[86].veinsmobility co2emission ETV
vector 448 tlExample.node[87].veinsmobility acceleration ETV
vector 449 tlExample.node[87].veinsmobility co2emission ETV
vector 450 tlExample.node[88].veinsmobility speed ETV
vector 451 tlExample.node[89].veinsmobility speed ETV
vector 452 tlExample.node[90].veinsmobility speed ETV
vector 453 tlExample.node[93].veinsmobility posx ETV
vector 454 tlExample.node[93].veinsmobility posy ETV
vector 455 tlExample.node[88].veinsmobility acceleration ETV
vector 456 tlExample.node[88].veinsmobility co2emission ETV
vector 457 tlExample.node[89].veinsmobility acceleration ETV
vector 458 tlExample.node[89].veinsmobility co2emission ETV
vector 459 tlExample.node[90].veinsmobility acceleration ETV
vector 460 tlExample.node[90].veinsmobility co2emission ETV
vector 461 tlExample.node[91].veinsmobility speed ETV
vector 462 tlExample.node[92].veinsmobility speed ETV
vector 463 tlExample.node[94].veinsmobility posx ETV
vector 464 tlExample.node[94].veinsmobility posy ETV
vector 465 tlExample.node[95].veinsmobility posx ETV
vector 466 tlExample.node[95].veinsmobility posy ETV
vector 467 tlExample.node[91].veinsmobility acceleration ETV
vector 468 tlExample.node[91].veinsmobility co2emission ETV
vector 469 tlExample.node[92].veinsmobility acceleration ETV
vector 470 tlExample.node[92].veinsmobility co2emission ETV
vector 471 tlExample.node[93].veinsmobility speed ETV
vector 472 tlExample.node[93].veinsmobility acceleration ETV
vector 473 tlExample.node[93].veinsmobility co2emission ETV
vector 474 tlExample.node[94].veinsmobility speed ETV
vector 475 tlExample.node[95].veinsmobility speed ETV
vector 476 tlExample.node[94].veinsmobility acceleration ETV
vector 477 tlExample.node[94].veinsmobility co2emission ETV
vector 478 tlExample.node[95].veinsmobility acceleration ETV
vector 479 tlExample.node[95].veinsmobility co2emission ETV
vector 480 tlExample.node[96].veinsmobility posx ETV
vector 481 tlExample.node[96].veinsmobility posy ETV
vector 482 tlExample.node[97].veinsmobility posx ETV
vector 483 tlExample.node[97].veinsmobility posy ETV
vector 484 tlExample.node[98].veinsmobility posx ETV
vector 485 tlExample.node[98].veinsmobility posy ETV
vector 486 tlExample.node[99].veinsmobility posx ETV
vector 487 tlExample.node[99].veinsmobility posy ETV
vector 488 tlExample.node[96].veinsmobility speed ETV
vector 489 tlExample.node[100].veinsmobility posx ETV
vector 490 tlExample.node[100].veinsmobility posy ETV
vector 491 tlExample.node[101].veinsmobility posx ETV
vector 492 tlExample.node[101].veinsmobility posy ETV
vector 493 tlExample.node[102].veinsmobility posx ETV
vector 494 tlExample.node[102].veinsmobility posy ETV
vector 495 tlExample.node[96].veinsmobility acceleration ETV
vector 496 tlExample.node[96].veinsmobility co2emission ETV
vector 497 tlExample.node[97].veinsmobility speed ETV
vector 498 tlExample.node[98].veinsmobility speed ETV
vector 499 tlExample.node[99].veinsmobility speed ETV
vector 500 tlExample.node[103].veinsmobility posx ETV
vector 501 tlExample.node[103].veinsmobility posy ETV
vector 502 tlExample.node[104].veinsmobility posx ETV
vector 503 tlExample.node[104].veinsmobility posy ETV
vector 504 tlExample.node[105].veinsmobility posx ETV
vector 505 tlExample.node[105].veinsmobility posy ETV
vector 506 tlExample.node[97].veinsmobility acceleration ETV
vector 507 tlExample.node[97].veinsmobility co2emission ETV
vector 508 tlExample.node[98].veinsmobility acceleration ETV
vector 509 tlExample.node[98].veinsmobility co2emission ETV
vector 510 tlExample.node[99].veinsmobility acceleration ETV
vector 511 tlExample.node[99].veinsmobility co2emission ETV
vector 512 tlExample.node[100].veinsmobility speed ETV
vector 513 tlExample.node[101].veinsmobility speed ETV
vector 514 tlExample.node[102].veinsmobility speed ETV
vector 515 tlExample.node[106].veinsmobility posx ETV
vector 516 tlExample.node[106].veinsmobility posy ETV
vector 517 tlExample.node[107].veinsmobility posx ETV
vector 518 tlExample.node[107].veinsmobility posy ETV
vector 519 tlExample.node[108].veinsmobility posx ETV
vector 520 tlExample.node[108].veinsmobility posy ETV
vector 521 tlExample.node[100].veinsmobility acceleration ETV
vector 522 tlExample.node[100].veinsmobility co2emission ETV
vector 523 tlExample.node[101].veinsmobility acceleration ETV
vector 524 tlExample.node[101].veinsmobility co2emission ETV
vector 525 tlExample.node[102].veinsmobility acceleration ETV
vector 526 tlExample.node[102].veinsmobility co2emission ETV
vector 527 tlExample.node[103].veinsmobility speed ETV
vector 528 tlExample.node[104].veinsmobility speed ETV
vector 529 tlExample.node[105].veinsmobility speed ETV
vector 530 tlExample.node[109].veinsmobility posx ETV
vector 531 tlExample.node[109].veinsmobility posy ETV
vector 532 tlExample.node[103].veinsmobility acceleration ETV
vector 533 tlExample.node[103].veinsmobility co2emission ETV
vector 534 tlExample.node[104].veinsmobility acceleration ETV
vector 535 tlExample.node[104].veinsmobility co2emission ETV
vector 536 tlExample.node[105].veinsmobility acceleration ETV
vector 537 tlExample.node[105].veinsmobility co2emission ETV
vector 538 tlExample.node[106].veinsmobility speed ETV
vector 539 tlExample.node[107].veinsmobility speed ETV
vector 540 tlExample.node[108].veinsmobility speed ETV
vector 541 tlExample.node[110].veinsmobility posx ETV
vector 542 tlExample.node[110].veinsmobility posy ETV
vector 543 tlExample.node[106].veinsmobility acceleration ETV
vector 544 tlExample.node[106].veinsmobility co2emission ETV
vector 545 tlExample.node[107].veinsmobility acceleration ETV
vector 546 tlExample.node[107].veinsmobility co2emission ETV
vector 547 tlExample.node[108].veinsmobility acceleration ETV
vector 548 tlExample.node[108].veinsmobility co2emission ETV
vector 549 tlExample.node[109].veinsmobility speed ETV
vector 550 tlExample.node[109].veinsmobility acceleration ETV
vector 551 tlExample.node[109].veinsmobility co2emission ETV
vector 552 tlExample.node[110].veinsmobility speed ETV
vector 553 tlExample.node[111].veinsmobility posx ETV
vector 554 tlExample.node[111].veinsmobility posy ETV
vector 555 tlExample.node[110].veinsmobility acceleration ETV
vector 556 tlExample.node[110].veinsmobility co2emission ETV
vector 557 tlExample.node[111].veinsmobility speed ETV
vector 558 tlExample.node[111].veinsmobility acceleration ETV
vector 559 tlExample.node[111].veinsmobility co2emission ETV
vector 560 tlExample.node[112].veinsmobility posx ETV
vector 561 tlExample.node[112].veinsmobility posy ETV
vector 562 tlExample.node[113].veinsmobility posx ETV
vector 563 tlExample.node[113].veinsmobility posy ETV
vector 564 tlExample.node[114].veinsmobility posx ETV
vector 565 tlExample.node[114].veinsmobility posy ETV
vector 566 tlExample.node[115].veinsmobility posx ETV
vector 567 tlExample.node[115].veinsmobility posy ETV
vector 568 tlExample.node[116].veinsmobility posx ETV
vector 569 tlExample.node[116].veinsmobility posy ETV
vector 570 tlExample.node[112].veinsmobility speed ETV
vector 571 tlExample.node[113].veinsmobility speed ETV
vector 572 tlExample.node[117].veinsmobility posx ETV
vector 573 tlExample.node[117].veinsmobility posy ETV
vector 574 tlExample.node[118].veinsmobility posx ETV
vector 575 tlExample.node[118].veinsmobility posy ETV
vector 576 tlExample.node[112].veinsmobility acceleration ETV
vector 577 tlExample.node[112].veinsmobility co2emission ETV
vector 578 tlExample.node[113].veinsmobility acceleration ETV
vector 579 tlExample.node[113].veinsmobility co2emission ETV
vector 580 tlExample.node[114].veinsmobility speed ETV
vector 581 tlExample.node[115].veinsmobility speed ETV
vector 582 tlExample.node[116].veinsmobility speed ETV
vector 583 tlExample.node[119].veinsmobility posx ETV
vector 584 tlExample.node[119].veinsmobility posy ETV
vector 585 tlExample.node[120].veinsmobility posx ETV
vector 586 tlExample.node[120].veinsmobility posy ETV
vector 587 tlExample.node[121].veinsmobility posx ETV
vector 588 tlExample.node[121].veinsmobility posy ETV
vector 589 tlExample.node[122].veinsmobility posx ETV
vector 590 tlExample.node[122].veinsmobility posy ETV
vector 591 tlExample.node[114].veinsmobility acceleration ETV
vector 592 tlExample.node[114].veinsmobility co2emission ETV
vector 593 tlExample.node[115].veinsmobility acceleration ETV
vector 594 tlExample.node[115].veinsmobility co2emission ETV
vector 595 tlExample.node[116].veinsmobility acceleration ETV
vector 596 tlExample.node[116].veinsmobility co2emission ETV
vector 597 tlExample.node[117].veinsmobility speed ETV
vector 598 tlExample.node[118].veinsmobility speed ETV
vector 599 tlExample.node[123].veinsmobility posx ETV
vector 600 tlExample.node[123].veinsmobility posy ETV
vector 601 tlExample.node[117].veinsmobility acceleration ETV
vector 602 tlExample.node[117].veinsmobility co2emission ETV
vector 603 tlExample.node[118].veinsmobility acceleration ETV
vector 604 tlExample.node[118].veinsmobility co2emission ETV
vector 605 tlExample.node[119].veinsmobility speed ETV
vector 606 tlExample.node[120].veinsmobility speed ETV
vector 607 tlExample.node[121].veinsmobility speed ETV
vector 608 tlExample.node[122].veinsmobility speed ETV
vector 609 tlExample.node[124].veinsmobility posx ETV
vector 610 tlExample.node[124].veinsmobility posy ETV
vector 611 tlExample.node[125].veinsmobility posx ETV
vector 612 tlExample.node[125].veinsmobility posy ETV
vector 613 tlExample.node[126].veinsmobility posx ETV
vector 614 tlExample.node[126].veinsmobility posy ETV
vector 615 tlExample.node[119].veinsmobility acceleration ETV
vector 616 tlExample.node[119].veinsmobility co2emission ETV
vector 617 tlExample.node[120].veinsmobility acceleration ETV
vector 618 tlExample.node[120].veinsmobility co2emission ETV
vector 619 tlExample.node[121].veinsmobility acceleration ETV
vector 620 tlExample.node[121].veinsmobility co2emission ETV
vector 621 tlExample.node[122].veinsmobility acceleration ETV
vector 622 tlExample.node[122].veinsmobility co2emission ETV
vector 623 tlExample.node[123].veinsmobility speed ETV
vector 624 tlExample.node[123].veinsmobility acceleration ETV
vector 625 tlExample.node[123].veinsmobility co2emission ETV
vector 626 tlExample.node[124].veinsmobility speed ETV
vector 627 tlExample.node[125].veinsmobility speed ETV
vector 628 tlExample.node[126].veinsmobility speed ETV
vector 629 tlExample.node[124].veinsmobility acceleration ETV
vector 630 tlExample.node[124].veinsmobility co2emission ETV
vector 631 tlExample.node[125].veinsmobility acceleration ETV
vector 632 tlExample.node[125].veinsmobility co2emission ETV
vector 633 tlExample.node[126].veinsmobility acceleration ETV
vector 634 tlExample.node[126].veinsmobility co2emission ETV
vector 635 tlExample.node[127].veinsmobility posx ETV
vector 636 tlExample.node[127].veinsmobility posy ETV
vector 637 tlExample.node[127].veinsmobility speed ETV
vector 638 tlExample.node[127].veinsmobility acceleration ETV
vector 639 tlExample.node[127].veinsmobility co2emission ETV
vector 640 tlExample.node[128].veinsmobility posx ETV
vector 641 tlExample.node[128].veinsmobility posy ETV
vector 642 tlExample.node[129].veinsmobility posx ETV
vector 643 tlExample.node[129].veinsmobility posy ETV
vector 644 tlExample.node[130].veinsmobility posx ETV
vector 645 tlExample.node[130].veinsmobility posy ETV
vector 646 tlExample.node[128].veinsmobility speed ETV
vector 647 tlExample.node[131].veinsmobility posx ETV
vector 648 tlExample.node[131].veinsmobility posy ETV
vector 649 tlExample.node[132].veinsmobility posx ETV
vector 650 tlExample.node[132].veinsmobility posy ETV
vector 651 tlExample.node[133].veinsmobility posx ETV
vector 652 tlExample.node[133].veinsmobility posy ETV
vector 653 tlExample.node[134].veinsmobility posx ETV
vector 654 tlExample.node[134].veinsmobility posy ETV
vector 655 tlExample.node[128].veinsmobility acceleration ETV
vector 656 tlExample.node[128].veinsmobility co2emission ETV
vector 657 tlExample.node[129].veinsmobility speed ETV
vector 658 tlExample.node[130].veinsmobility speed ETV
vector 659 tlExample.node[129].veinsmobility acceleration ETV
vector 660 tlExample.node[129].veinsmobility co2emission ETV
vector 661 tlExample.node[130].veinsmobility acceleration ETV
vector 662 tlExample.node[130].veinsmobility co2emission ETV
vector 663 tlExample.node[131].veinsmobility speed ETV
vector 664 tlExample.node[132].veinsmobility speed ETV
vector 665 tlExample.node[133].veinsmobility speed ETV
vector 666 tlExample.node[134].veinsmobility speed ETV
vector 667 tlExample.node[135].veinsmobility posx ETV
vector 668 tlExample.node[135].veinsmobility posy ETV
vector 669 tlExample.node[136].veinsmobility posx ETV
vector 670 tlExample.node[136].veinsmobility posy ETV
vector 671 tlExample.node[137].veinsmobility posx ETV
vector 672 tlExample.node[137].veinsmobility posy ETV
vector 673 tlExample.node[138].veinsmobility posx ETV
vector 674 tlExample.node[138].veinsmobility posy ETV
vector 675 tlExample.node[139].veinsmobility posx ETV
vector 676 tlExample.node[139].veinsmobility posy ETV
vector 677 tlExample.node[131].veinsmobility acceleration ETV
vector 678 tlExample.node[131].veinsmobility co2emission ETV
vector 679 tlExample.node[132].veinsmobility acceleration ETV
vector 680 tlExample.node[132].veinsmobility co2emission ETV
vector 681 tlExample.node[133].veinsmobility acceleration ETV
vector 682 tlExample.node[133].veinsmobility co2emission ETV
vector 683 tlExample.node[134].veinsmobility acceleration ETV
vector 684 tlExample.node[134].veinsmobility co2emission ETV
vector 685 tlExample.node[135].veinsmobility speed ETV
vector 686 tlExample.node[136].veinsmobility speed ETV
vector 687 tlExample.node[137].veinsmobility speed ETV
vector 688 tlExample.node[138].veinsmobility speed ETV
vector 689 tlExample.node[139].veinsmobility speed ETV
vector 690 tlExample.node[140].veinsmobility posx ETV
vector 691 tlExample.node[140].veinsmobility posy ETV
vector 692 tlExample.node[135].veinsmobility acceleration ETV
vector 693 tlExample.node[135].veinsmobility co2emission ETV
vector 694 tlExample.node[136].veinsmobility acceleration ETV
vector 695 tlExample.node[136].veinsmobility co2emission ETV
vector 696 tlExample.node[137].veinsmobility acceleration ETV
vector 697 tlExample.node[137].veinsmobility co2emission ETV
vector 698 tlExample.node[138].veinsmobility acceleration ETV
vector 699 tlExample.node[138].veinsmobility co2emission ETV
vector 700 tlExample.node[139].veinsmobility acceleration ETV
vector 701 tlExample.node[139].veinsmobility co2emission ETV
vector 702 tlExample.node[141].veinsmobility posx ETV
vector 703 tlExample.node[141].veinsmobility posy ETV
vector 704 tlExample.node[140].veinsmobility speed ETV
vector 705 tlExample.node[142].veinsmobility posx ETV
vector 706 tlExample.node[142].veinsmobility posy ETV
vector 707 tlExample.node[140].veinsmobility acceleration ETV
vector 708 tlExample.node[140].veinsmobility co2emission ETV
vector 709 tlExample.node[141].veinsmobility speed ETV
vector 710 tlExample.node[141].veinsmobility acceleration ETV
vector 711 tlExample.node[141].veinsmobility co2emission ETV
vector 712 tlExample.node[142].veinsmobility speed ETV
vector 713 tlExample.node[143].veinsmobility posx ETV
vector 714 tlExample.node[143].veinsmobility posy ETV
vector 715 tlExample.node[142].veinsmobility acceleration ETV
vector 716 tlExample.node[142].veinsmobility co2emission ETV
vector 717 tlExample.node[143].veinsmobility speed ETV
vector 718 tlExample.node[143].veinsmobility acceleration ETV
vector 719 tlExample.node[143].veinsmobility co2emission ETV
vector 720 tlExample.node[144].veinsmobility posx ETV
vector 721 tlExample.node[144].veinsmobility posy ETV
vector 722 tlExample.node[145].veinsmobility posx ETV
vector 723 tlExample.node[145].veinsmobility posy ETV
vector 724 tlExample.node[146].veinsmobility posx ETV
vector 725 tlExample.node[146].veinsmobility posy ETV
vector 726 tlExample.node[147].veinsmobility posx ETV
vector 727 tlExample.node[147].veinsmobility posy ETV
vector 728 tlExample.node[148].veinsmobility posx ETV
vector 729 tlExample.node[148].veinsmobility posy ETV
vector 730 tlExample.node[149].veinsmobility posx ETV
vector 731 tlExample.node[149].veinsmobility posy ETV
vector 732 tlExample.node[150].veinsmobility posx ETV
vector 733 tlExample.node[150].veinsmobility posy ETV
vector 734 tlExample.node[144].veinsmobility speed ETV
vector 735 tlExample.node[145].veinsmobility speed ETV
vector 736 tlExample.node[146].veinsmobility speed ETV
vector 737 tlExample.node[151].veinsmobility posx ETV
vector 738 tlExample.node[151].veinsmobility posy ETV
vector 739 tlExample.node[144].veinsmobility acceleration ETV
vector 740 tlExample.node[144].veinsmobility co2emission ETV
vector 741 tlExample.node[145].veinsmobility acceleration ETV
vector 742 tlExample.node[145].veinsmobility co2emission ETV
vector 743 tlExample.node[146].veinsmobility acceleration ETV
vector 744 tlExample.node[146].veinsmobility co2emission ETV
vector 745 tlExample.node[147].veinsmobility speed ETV
vector 746 tlExample.node[148].veinsmobility speed ETV
vector 747 tlExample.node[149].veinsmobility speed ETV
vector 748 tlExample.node[150].veinsmobility speed ETV
vector 749 tlExample.node[152].veinsmobility posx ETV
vector 750 tlExample.node[152].veinsmobility posy ETV
vector 751 tlExample.node[153].veinsmobility posx ETV
vector 752 tlExample.node[153].veinsmobility posy ETV
vector 753 tlExample.node[154].veinsmobility posx ETV
vector 754 tlExample.node[154].veinsmobility posy ETV
vector 755 tlExample.node[147].veinsmobility acceleration ETV
vector 756 tlExample.node[147].veinsmobility co2emission ETV
vector 757 tlExample.node[148].veinsmobility acceleration ETV
vector 758 tlExample.node[148].veinsmobility co2emission ETV
vector 759 tlExample.node[149].veinsmobility acceleration ETV
vector 760 tlExample.node[149].veinsmobility co2emission ETV
vector 761 tlExample.node[150].veinsmobility acceleration ETV
vector 762 tlExample.node[150].veinsmobility co2emission ETV
vector 763 tlExample.node[151].veinsmobility speed ETV
vector 764 tlExample.node[155].veinsmobility posx ETV
vector 765 tlExample.node[155].veinsmobility posy ETV
vector 766 tlExample.node[151].veinsmobility acceleration ETV
vector 767 tlExample.node[151].veinsmobility co2emission ETV
vector 768 tlExample.node[152].veinsmobility speed ETV
vector 769 tlExample.node[153].veinsmobility speed ETV
vector 770 tlExample.node[154].veinsmobility speed ETV
vector 771 tlExample.node[156].veinsmobility posx ETV
vector 772 tlExample.node[156].veinsmobility posy ETV
vector 773 tlExample.node[152].veinsmobility acceleration ETV
vector 774 tlExample.node[152].veinsmobility co2emission ETV
vector 775 tlExample.node[153].veinsmobility acceleration ETV
vector 776 tlExample.node[153].veinsmobility co2emission ETV
vector 777 tlExample.node[154].veinsmobility acceleration ETV
vector 778 tlExample.node[154].veinsmobility co2emission ETV
vector 779 tlExample.node[155].veinsmobility speed ETV
vector 780 tlExample.node[157].veinsmobility posx ETV
vector 781 tlExample.node[157].veinsmobility posy ETV
vector 782 tlExample.node[155].veinsmobility acceleration ETV
vector 783 tlExample.node[155].veinsmobility co2emission ETV
vector 784 tlExample.node[156].veinsmobility speed ETV
vector 785 tlExample.node[158].veinsmobility posx ETV
vector 786 tlExample.node[158].veinsmobility posy ETV
vector 787 tlExample.node[156].veinsmobility acceleration ETV
vector 788 tlExample.node[156].veinsmobility co2emission ETV
vector 789 tlExample.node[157].veinsmobility speed ETV
vector 790 tlExample.node[159].veinsmobility posx ETV
vector 791 tlExample.node[159].veinsmobility posy ETV
vector 792 tlExample.node[157].veinsmobility acceleration ETV
vector 793 tlExample.node[157].veinsmobility co2emission ETV
vector 794 tlExample.node[158].veinsmobility speed ETV
vector 795 tlExample.node[158].veinsmobility acceleration ETV
vector 796 tlExample.node[158].veinsmobility co2emission ETV
vector 797 tlExample.node[159].veinsmobility speed ETV
vector 798 tlExample.node[159].veinsmobility acceleration ETV
vector 799 tlExample.node[159].veinsmobility co2emission ETV
0	48934 10844 34 1665757 0.1 37.4 374 30.1 490.90044307566 89309.92300274 28946872.414559
1	59778 7165 34 1665757 0.1 37.4 374 826.6 826.6 309148.4 255542067.44
2	66943 10863 34 1665757 0.1 37.4 374 3555.9567308434 4019.9 1424383.0140795 5432449879.2036
3	77806 7539 34 1665757 0.1 37.4 374 2423.4 2423.4 906351.60000001 2196452467.44
4	85345 10865 34 1665757 0.1 37.4 374 3553.69227735 4019.9 1423655.9192528 5426959424.5438
5	96210 7539 34 1665757 0.1 37.4 374 1623.4 1623.4 607151.6 985649907.43999
6	103749 10858 34 1665757 0.1 37.4 374 3554.5991045286 4019.9 1423951.9777707 5429200093.617
7	114607 7165 34 1665757 0.1 37.4 374 823.4 823.4 307951.6 253567347.44
8	121772 7539 34 1665757 0.1 37.4 374 3223.4 3223.4 1205551.6 3885975027.44
9	129311 10864 34 1665757 0.1 37.4 374 30.1 496.20071064004 91016.219445397 29873707.943313
10	140175 7913 34 1665757 0.1 37.4 374 2423.4 2423.4 906351.60000001 2196452467.44
11	148088 11222 34 1665757 0.1 37.4 374 30.1 493.89969297573 90191.288767351 29438047.007443
12	159310 7913 34 1665757 0.1 37.4 374 1623.4 1623.4 607151.6 985649907.43999
13	167223 11229 34 1665757 0.1 37.4 374 30.1 502.25659607091 93003.059110252 30957069.693459
14	178452 7539 34 1665757 0.1 37.4 374 823.4 823.4 307951.6 253567347.44
15	185991 11239 34 1665757 0.1 37.4 374 30.1 495.79036057758 90890.855176958 29784172.271338
16	197230 11225 34 1665757 0.1 37.4 374 30.1 493.16627902833 90025.782170533 29333039.366181
17	208455 7913 34 1665757 0.1 37.4 374 1626.6 1626.6 608348.4 989539507.43999
18	216368 11219 34 1665757 0.1 37.4 374 30.1 497.67693814015 91453.891076882 30122115.260126
19	227587 7913 34 1665757 0.1 37.4 374 2426.6 2426.6 907548.39999999 2202256947.44
20	235500 11227 34 1665757 0.1 37.4 374 30.1 497.61638257742 91390.678537632 30083092.535791
21	246727 7913 34 1665757 0.1 37.4 374 3226.6 3226.6 1206748.4 3893694387.44
22	254640 7539 34 1665757 0.1 37.4 374 826.6 826.6 309148.4 255542067.44
23	262179 11238 34 1665757 0.1 37.4 374 3550.6808578044 4019.9 1422705.7370409 5419800955.0294
24	273417 7913 34 1665757 0.1 37.4 374 1626.6 1626.6 608348.4 989539507.43999
25	281330 11234 34 1665757 0.1 37.4 374 3552.1208220572 4019.9 1423188.4056281 5423437754.9543
26	292564 7913 34 1665757 0.1 37.4 374 2426.6 2426.6 907548.39999999 2202256947.44
27	300477 11222 34 1665757 0.1 37.4 374 3557.5507870215 4019.9 1424913.2614306 5436459586.6019
28	311699 7913 34 1665757 0.1 37.4 374 3226.6 3226.6 1206748.4 3893694387.44
29	319612 11227 34 1665757 0.1 37.4 374 3550.8002364855 4019.9 1422736.0099845 5420015628.7665
30	330839 11228 34 1665757 0.1 37.4 374 3558.3099182471 4019.9 1425219.7347761 5438803917.0281
31	342067 7913 34 1665757 0.1 37.4 374 3223.4 3223.4 1205551.6 3885975027.44
32	349980 11219 83 1665757 0.2 37.4 373 0.32034618919599 13.889702171935 4608.0044307566 60637.388406674
33	361199 11211 83 1665757 0.2 37.4 373 0.33079152741935 13.889609335908 4639.432691566 61168.850302944
34	372410 11219 83 1665757 0.2 37.4 373 0.32925043842639 13.889373573705 4662.0772265003 61599.779494609
35	383629 11219 83 1665757 0.2 37.4 373 0.32496837222599 13.889941745703 4653.0089547142 61434.148707442
36	394848 11221 83 1665757 0.2 37.4 373 0.32045069895685 13.889485847063 4661.0071064004 61614.554846022
37	406069 11217 83 1665757 0.2 37.4 373 0.32890328203677 13.888274805734 4637.9969297573 61253.765791879
38	417286 11225 83 1665757 0.2 37.4 373 0.31997190330527 13.889540752335 4721.5659607091 62709.935241656
39	428511 11201 83 1665757 0.2 37.4 373 0.3309290887916 13.88864673136 4656.9036057758 61427.095539591
40	439712 11221 83 1665757 0.2 37.4 373 0.3351720821124 13.888171213665 4630.6627902833 61046.880587
41	450933 11218 83 1665757 0.2 37.4 373 0.32817527062609 13.88946163951 4675.7693814015 61943.931780601
42	462151 11213 83 1665757 0.2 37.4 373 0.32739370597177 13.887922730597 4675.1638257741 61889.876739524
43	473364 11216 83 1665757 0.2 37.4 373 0.33654664021218 13.889778388254 4692.1914219557 62251.113992721
44	484580 11199 83 1665757 0.2 37.4 373 0.3346844476508 13.889978800514 4677.7917794283 61939.97506873
45	495779 11216 83 1665757 0.2 37.4 373 0.33958628881606 13.88864899118 4623.4921297848 60862.608426859
46	506995 11218 83 1665757 0.2 37.4 373 0.31878794493852 13.889410198408 4690.9976351451 62146.297841079
47	518213 11223 83 1665757 0.2 37.4 373 0.34801504584961 13.886799730218 4615.9008175291 60943.513875928
48	529436 11254 148 1665757 0.3 37.4 372 -2.2 3.4602570629213 133.35681052807 900.62863647461
49	540690 9872 148 1665757 0.3 37.4 372 0.973 13.215389287069 1375.9326959045 8721.6844210589
50	550562 11308 148 1665757 0.3 37.4 372 -2.2 3.4804854805283 134.06374786929 911.63125097418
51	561870 9792 148 1665757 0.3 37.4 372 0.973 12.706374445417 1377.400321548 8827.2999782888
52	571662 11267 148 1665757 0.3 37.4 372 -2.2 3.486488765222 133.54356532627 893.08396852535
53	582929 9907 148 1665757 0.3 37.4 372 0.973 13.333335563212 1379.841163136 8520.3543741835
54	592836 11283 148 1665757 0.3 37.4 372 -2.2 3.4687405742006 135.15990314701 931.0420040367
55	604119 9862 148 1665757 0.3 37.4 372 0.973 13.059952876714 1383.3350119444 8956.6239064378
56	613981 11247 148 1665757 0.3 37.4 372 -2.2 3.4453787649982 132.97065209036 908.24696072951
57	625228 9918 148 1665757 0.3 37.4 372 0.973 13.287284099014 1382.496891201 8568.747219514
58	635146 11273 148 1665757 0.3 37.4 372 -2.2 3.4702865287388 135.49442802031 885.11617365702
59	646419 9894 148 1665757 0.3 37.4 372 0.973 12.50750261259 1368.7430103564 8511.7550707246
60	656313 11301 148 1665757 0.3 37.4 372 -2.2 3.4998062737286 132.60918729265 883.34873391849
61	667614 9896 148 1665757 0.3 37.4 372 0.973 12.525260650474 1348.9371434723 8271.4231018644
62	677510 11220 148 1665757 0.3 37.4 372 -2.2 3.4835658126976 134.57342679388 852.72011892303
63	688730 9890 148 1665757 0.3 37.4 372 0.973 12.230124903197 1355.9272741854 8239.5245107501
64	698620 11330 148 1665757 0.3 37.4 372 -2.2 3.473860890721 132.0882332022 833.30963152672
65	709950 9918 148 1665757 0.3 37.4 372 0.973 12.258041355687 1315.0344368267 8049.1675569384
66	719868 11350 148 1665757 0.3 37.4 372 -2.2 3.4418021069141 135.46350168703 841.7178208636
67	731218 9948 148 1665757 0.3 37.4 372 0.973 13.101821850706 1345.5827429011 8155.0457555182
68	741166 11217 148 1665757 0.3 37.4 372 -2.2 3.4578732188093 134.81598489714 925.16567142795
69	752383 9947 148 1665757 0.3 37.4 372 0.973 12.749956194032 1398.4437473656 8716.6680531302
70	762330 11317 148 1665757 0.3 37.4 372 -2.2 3.4951582578942 132.11537403287 907.9594449517
71	773647 9802 148 1665757 0.3 37.4 372 0.973 13.543121231564 1363.9805378136 8756.9903381897
72	783449 11336 148 1665757 0.3 37.4 372 -2.2 3.4590007147053 133.4144605886 816.30239748603
73	794785 9881 148 1665757 0.3 37.4 372 0.973 13.372819292486 1320.9198366801 7874.8843063035
74	804666 11265 148 1665757 0.3 37.4 372 -2.2 3.4402882977156 134.85790621886 899.6109146415
75	815931 9857 148 1665757 0.3 37.4 372 0.973 13.206667517711 1378.5443321869 8740.1298915639
76	825788 11320 148 1665757 0.3 37.4 372 -2.2 3.4600039070938 135.58641575782 876.36642651743
77	837108 9880 148 1665757 0.3 37.4 372 0.973 13.187678442517 1367.1551809803 8319.2039864639
78	846988 11352 148 1665757 0.3 37.4 372 -2.2 3.4527195383562 134.43713843299 870.97446271904
79	858340 9963 148 1665757 0.3 37.4 372 0.973 12.814515323264 1349.0628918676 8511.2742470412
80	868303 7486 5725 1665757 2.4 37.4 351 1623.4 1623.4 569813.4 925035073.55999
81	875789 10588 5725 1665757 2.4 37.4 351 30.1 463.29312745744 79546.878135539 24328133.486692
82	886377 7117 6476 1665757 2.5 37.4 350 823.4 823.4 288190 237295646
83	893494 10575 6476 1665757 2.5 37.4 350 30.1 467.3550628054 80722.646817758 24965553.486605
84	904069 7467 6476 1665757 2.5 37.4 350 3226.6 3226.6 1129310 3643831646
85	911536 10559 6476 1665757 2.5 37.4 350 3587.7554647079 4019.9 1338410.222071 5124377978.2381
86	922095 10597 6476 1665757 2.5 37.4 350 0.32935315077892 13.889546114344 4331.9312745743 56950.676486084
87	932692 10540 6659 1665757 2.6 37.4 349 3588.862539008 4019.9 1334704.7679306 5110599549.1578
88	943232 7448 6659 1665757 2.6 37.4 349 2423.4 2423.4 845766.60000001 2049630778.44
89	950680 10547 6659 1665757 2.6 37.4 349 3591.4064195129 4019.9 1335411.3863449 5115965296.4417
90	961227 7448 6659 1665757 2.6 37.4 349 1623.4 1623.4 566566.6 919764218.43999
91	968675 10533 6659 1665757 2.6 37.4 349 3591.2941736357 4019.9 1335428.3654572 5116106363.3927
92	979208 7099 6659 1665757 2.6 37.4 349 823.4 823.4 287366.6 236617658.44
93	986307 7448 6659 1665757 2.6 37.4 349 3223.4 3223.4 1124966.6 3626217338.44
94	993755 10536 6659 1665757 2.6 37.4 349 30.1 461.17104419685 78762.822004393 23976469.119753
95	1004291 10532 6659 1665757 2.6 37.4 349 30.1 459.65647241373 78339.40727403 23754273.210392
96	1014823 7448 6659 1665757 2.6 37.4 349 2426.6 2426.6 846883.39999999 2055047258.44
97	1022271 10544 6659 1665757 2.6 37.4 349 30.1 463.46059612506 79423.851848371 24325455.754269
98	1032815 7448 6659 1665757 2.6 37.4 349 3226.6 3226.6 1126083.4 3633420698.44
99	1040263 7099 6659 1665757 2.6 37.4 349 826.6 826.6 288483.4 238460378.44
100	1047362 10896 6659 1665757 2.6 37.4 349 3586.7822655897 4019.9 1334020.9150021 5105418391.3513
101	1058258 7797 6659 1665757 2.6 37.4 349 1626.6 1626.6 567683.4 923393818.43999
102	1066055 10881 6659 1665757 2.6 37.4 349 3591.486720183 4019.9 1335509.8971683 5116720676.5168
103	1076936 11083 6659 1665757 2.6 37.4 349 -2.2 3.3444481387269 134.82883232567 727.22864845546
104	1088019 9818 6659 1665757 2.6 37.4 349 0.973 12.886803488857 1235.6304634177 7053.4697504671
105	1097837 10900 6659 1665757 2.6 37.4 349 0.32618093570345 13.889892712082 4372.550628054 57856.083779613
106	1108737 10896 6659 1665757 2.6 37.4 349 0.32562797799939 13.889327452562 4321.4453529213 56906.90380514
107	1119633 10862 6872 1665757 2.7 37.4 348 30.1 456.49372314356 77276.580013112 23261975.250792
108	1130495 7429 6872 1665757 2.7 37.4 348 826.6 826.6 287656.8 237777110.88
109	1137924 7777 6872 1665757 2.7 37.4 348 2423.4 2423.4 843343.20000001 2043757910.88
110	1145701 10865 6872 1665757 2.7 37.4 348 30.1 457.97251113523 77780.813722125 23499535.867843
111	1156566 10865 6872 1665757 2.7 37.4 348 30.1 458.205253472 77777.49068151 23520317.605972
112	1167431 7777 6872 1665757 2.7 37.4 348 1626.6 1626.6 566056.8 920747990.87999
113	1175208 7777 6872 1665757 2.7 37.4 348 2426.6 2426.6 844456.79999999 2049158870.88
114	1182985 10846 6872 1665757 2.7 37.4 348 3589.544754217 4019.9 1330839.5099931 5095607902.8319
115	1193831 11014 6872 1665757 2.7 37.4 348 -2.2 3.4814148250734 132.2404157943 863.43836841232
116	1204845 9572 6872 1665757 2.7 37.4 348 0.973 12.103848711475 1284.3576248443 8072.4068302751
117	1214417 10985 6872 1665757 2.7 37.4 348 -2.2 3.4310792476172 132.7734844411 819.49370655896
118	1225402 9680 6872 1665757 2.7 37.4 348 0.973 13.187328516907 1269.5168571134 7700.1196896243
119	1235082 10868 6872 1665757 2.7 37.4 348 0.32838197282865 13.887979149886 4310.3746099197 56680.880551904
120	1245950 10878 6872 1665757 2.7 37.4 348 0.33101254280773 13.888686734424 4284.935804871 56221.371605996
121	1256828 10872 6872 1665757 2.7 37.4 348 0.32008852459257 13.889081299803 4286.0582636431 56348.148388552
122	1267700 10878 6872 1665757 2.7 37.4 348 0.32396579101798 13.889034697865 4310.7104419685 56679.345986649
123	1278578 10874 6872 1665757 2.7 37.4 348 0.3153381368902 13.889680479837 4295.5647241373 56387.885262382
124	1289452 10869 6872 1665757 2.7 37.4 348 0.34240860566497 13.888597618612 4333.6059612506 57229.475743733
125	1300321 10875 6872 1665757 2.7 37.4 348 0.32679226287524 13.889715585879 4331.1773441027 57130.477453241
126	1311196 10861 6872 1665757 2.7 37.4 348 0.34078371676849 13.887910803696 4284.1327981699 56238.467230862
127	1322057 10838 7913 1665757 2.8 37.4 347 3589.3452900068 4019.9 1326837.8892907 5079629409.0333
128	1332895 7757 7913 1665757 2.8 37.4 347 3223.4 3223.4 1118519.8 3605436723.32
129	1340652 10938 7913 1665757 2.8 37.4 347 -2.2 3.4853593894654 134.48611557529 792.31433476466
130	1351590 9674 7913 1665757 2.8 37.4 347 0.973 12.880311330384 1258.8759096403 7488.5379706992
131	1361264 11010 7913 1665757 2.8 37.4 347 -2.2 3.4449161698576 132.79222477161 780.69044881925
132	1372274 9644 7913 1665757 2.8 37.4 347 0.973 13.056651900372 1246.5020283901 7488.0965915917
133	1381918 10947 7913 1665757 2.8 37.4 347 -2.2 3.41330830683 135.38939654499 849.05385109266
134	1392865 9660 7913 1665757 2.8 37.4 347 0.973 13.255919571425 1286.8520265794 8169.6123645047
135	1402525 10925 7913 1665757 2.8 37.4 347 -2.2 3.4870157942641 135.09786833158 754.74799419168
136	1413450 9679 7913 1665757 2.8 37.4 347 0.973 13.050573084294 1249.2851739866 7330.4034903244
137	1423129 10900 7913 1665757 2.8 37.4 347 -2.2 3.4926801761934 132.34442941184 840.82456054008
138	1434029 9694 7913 1665757 2.8 37.4 347 0.973 13.191622340824 1283.0880658783 7942.3585186312
139	1443723 10905 7913 1665757 2.8 37.4 347 -2.2 3.4891515985364 133.26189012947 824.72281279157
140	1454628 9706 7913 1665757 2.8 37.4 347 0.973 13.042506292638 1254.5111191342 7713.014831349
141	1464334 10962 7913 1665757 2.8 37.4 347 -2.2 3.4743279637533 133.55526303711 852.63770916923
142	1475296 9651 7913 1665757 2.8 37.4 347 0.973 12.98386985903 1285.9797354282 8032.9203743388
143	1484947 10886 7913 1665757 2.8 37.4 347 -2.2 3.4993465014268 132.29622708531 774.68259367477
144	1495833 9749 7913 1665757 2.8 37.4 347 0.973 13.725979606248 1257.2120876209 7310.891902628
145	1505582 10837 7913 1665757 2.8 37.4 347 0.32206836093799 13.886363656642 4263.9372314356 56077.359893696
146	1516419 10836 7913 1665757 2.8 37.4 347 0.3279856352869 13.889112321611 4278.7251113523 56211.774789032
147	1527255 10845 7913 1665757 2.8 37.4 347 0.34350274198805 13.888367738735 4281.05253472 56389.343507516
148	1538100 10834 7913 1665757 2.8 37.4 347 0.32442004691111 13.889660353991 4303.55245783 56510.468370277
149	1548934 10876 8009 1665757 2.9 37.4 346 -2.2 3.4133642241359 134.82781968239 818.79189373263
150	1559810 9654 8009 1665757 2.9 37.4 346 0.973 12.469182310748 1274.0462240264 7818.1255790489
151	1569464 10856 8009 1665757 2.9 37.4 346 -2.2 3.4702029087574 133.09471311589 859.71552257952
152	1580320 9684 8009 1665757 2.9 37.4 346 0.973 12.364638173234 1302.6934363362 8051.0903998073
153	1590004 10891 8009 1665757 2.9 37.4 346 -2.2 3.3517258333741 133.42093019261 818.76685548293
154	1600895 9652 8009 1665757 2.9 37.4 346 0.973 12.404958624889 1272.0955695951 7852.0298875889
155	1610547 10908 8009 1665757 2.9 37.4 346 -2.2 3.4818363301456 135.13539388704 843.65536144806
156	1621455 9631 8009 1665757 2.9 37.4 346 0.973 13.508732337966 1268.7468597986 7989.6318266433
157	1631086 10796 8009 1665757 2.9 37.4 346 0.32058500126237 13.889393519049 4305.547099932 56906.696108154
158	1641882 10821 8106 1665757 3 37.4 345 -2.2 3.4957734973868 132.44648676955 928.56770073402
159	1652703 9575 8106 1665757 3 37.4 345 0.973 12.967107390548 1333.5519594511 8640.8779889564
160	1662278 7327 15637 1665757 4.9 37.4 326 1623.4 1623.4 529228.4 859149384.55999
161	1669605 10211 15637 1665757 4.9 37.4 326 30.1 433.81140749062 69709.534553269 19985762.298054
162	1679816 7001 15637 1665757 4.9 37.4 326 823.4 823.4 268428.4 221023944.56
163	1686817 10215 15637 1665757 4.9 37.4 326 30.1 429.30853423406 68480.618240143 19382555.987677
164	1697032 7306 15752 1665757 5 37.4 325 3226.6 3226.6 1048645 3383557957
165	1704338 10174 15752 1665757 5 37.4 325 3620.877748735 4019.9 1247905.8342625 4796573331.3673
166	1714512 10189 15752 1665757 5 37.4 325 0.33638028622721 13.889911153759 4037.1140749062 53218.702983386
167	1724701 10195 15752 1665757 5 37.4 325 0.33030259065446 13.88923802464 3992.0853423405 52268.564777254
168	1734896 10157 16361 1665757 5.1 37.4 324 3628.0043523498 4019.9 1245825.9561817 4795199408.215
169	1745053 7287 16361 1665757 5.1 37.4 324 2423.4 2423.4 785181.6 1902809089.44
170	1752340 10159 16361 1665757 5.1 37.4 324 3620.6281397434 4019.9 1243843.1826729 4780094439.6849
171	1762499 7287 16361 1665757 5.1 37.4 324 1623.4 1623.4 525981.6 853878529.43999
172	1769786 7287 16361 1665757 5.1 37.4 324 3223.4 3223.4 1044381.6 3366459649.44
173	1777073 10149 16361 1665757 5.1 37.4 324 30.1 419.27560185994 65672.446326633 18071656.488818
174	1787222 10155 16361 1665757 5.1 37.4 324 30.1 424.78132955198 67057.43040994 18753805.80421
175	1797377 7287 16361 1665757 5.1 37.4 324 2426.6 2426.6 786218.4 1907837569.44
176	1804664 10163 16361 1665757 5.1 37.4 324 30.1 426.97767487104 67705.198887838 19062565.966862
177	1814827 7287 16361 1665757 5.1 37.4 324 3226.6 3226.6 1045418.4 3373147009.44
178	1822114 6963 16361 1665757 5.1 37.4 324 826.6 826.6 267818.4 221378689.44
179	1829077 10152 16361 1665757 5.1 37.4 324 3624.3633836435 4019.9 1244885.4140043 4788046663.9737
180	1839229 7287 16361 1665757 5.1 37.4 324 1626.6 1626.6 527018.4 857248129.43999
181	1846516 10162 16361 1665757 5.1 37.4 324 3624.2893838171 4019.9 1244903.5534027 4788183882.6566
182	1856678 7287 16361 1665757 5.1 37.4 324 2426.6 2426.6 786218.4 1907837569.44
183	1863965 10156 16361 1665757 5.1 37.4 324 3621.6718079669 4019.9 1244119.943157 4782202799.8816
184	1874121 10264 16361 1665757 5.1 37.4 324 -2.2 3.4981782450744 134.04004912829 750.36111446286
185	1884385 9111 16361 1665757 5.1 37.4 324 0.973 13.310006409102 1191.1070483238 6986.8717656957
186	1893496 10245 16361 1665757 5.1 37.4 324 -2.2 3.3878053247463 132.40529503975 786.58757706928
187	1903741 9119 16361 1665757 5.1 37.4 324 0.973 12.741450179333 1198.8812475728 7365.0104630234
188	1912860 10167 16361 1665757 5.1 37.4 324 0.34388695645612 13.889538342655 3990.2225126505 52385.7286027
189	1923027 10131 16472 1665757 5.2 37.4 323 3623.4368225998 4019.9 1240696.6332602 4770614153.3597
190	1933158 6943 16472 1665757 5.2 37.4 323 823.4 823.4 265958.2 218989981.88
191	1940101 7266 16472 1665757 5.2 37.4 323 2423.4 2423.4 782758.2 1896936221.88
192	1947367 10132 16472 1665757 5.2 37.4 323 30.1 424.13309257751 66807.228742583 18664197.653498
193	1957499 10223 16472 1665757 5.2 37.4 323 -2.2 3.4514723228058 132.70932375684 807.85960490064
194	1967722 9014 16472 1665757 5.2 37.4 323 0.973 13.050833218301 1204.7102507195 7551.2721266496
195	1976736 10143 16472 1665757 5.2 37.4 323 0.3429872487078 13.889329932325 3918.9564765024 51032.162299916
196	1986879 10148 16472 1665757 5.2 37.4 323 0.32874627179466 13.889333629722 3992.718602566 52511.238867177
197	1997027 10144 16472 1665757 5.2 37.4 323 0.32784282966866 13.889974641309 3891.7560185994 50422.387352517
198	2007171 10145 16472 1665757 5.2 37.4 323 0.34661186167155 13.889270642933 3946.8132955198 51616.524763607
199	2017316 10142 16472 1665757 5.2 37.4 323 0.32716918658814 13.888976926564 3968.7767487104 52068.961187969
200	2027458 10146 16472 1665757 5.2 37.4 323 0.32692882335396 13.888797509575 3955.3661635651 51896.821859313
201	2037604 10132 16472 1665757 5.2 37.4 323 0.34868522330886 13.889880699127 3956.1061618293 51868.147120723
202	2047736 10136 16472 1665757 5.2 37.4 323 0.33768374505453 13.889622799316 3982.2819203309 52317.536039328
203	2057872 10110 16593 1665757 5.3 37.4 322 30.1 423.58350567466 66593.093891574 18585366.909758
204	2067982 7245 16593 1665757 5.3 37.4 322 1626.6 1626.6 523765.2 851956474.31999
205	2075227 10130 16593 1665757 5.3 37.4 322 -2.2 3.4968385053799 132.75435593451 773.49808438911
206	2085357 9082 16593 1665757 5.3 37.4 322 0.973 13.571515677805 1197.9603131043 7358.6332746714
207	2094439 10287 16593 1665757 5.3 37.4 322 -2.2 3.3926863290835 133.61401289841 716.95893666301
208	2104726 8951 16593 1665757 5.3 37.4 322 0.973 12.759018436136 1161.9194875574 6858.3209497302
209	2113677 10143 16593 1665757 5.3 37.4 322 -2.2 3.493917586864 134.68089629788 735.75675577636
210	2123820 9181 16593 1665757 5.3 37.4 322 0.973 12.989297644135 1158.3903056237 6894.6377008041
211	2133001 10180 16593 1665757 5.3 37.4 322 -2.2 3.4366627476411 132.78091681419 767.4629504728
212	2143181 9117 16593 1665757 5.3 37.4 322 0.973 12.505385856047 1179.5512545851 7191.3367369867
213	2152298 10343 16593 1665757 5.3 37.4 322 -2.2 3.4792143546511 133.77346384242 702.89889906867
214	2162641 9073 16593 1665757 5.3 37.4 322 0.973 12.632689355901 1141.9289677043 6758.4516795672
215	2171714 10250 16593 1665757 5.3 37.4 322 -2.2 3.4976752456278 134.92701167454 733.02460488376
216	2181964 9086 16593 1665757 5.3 37.4 322 0.973 13.182259659625 1155.8961656938 6932.6507408746
217	2191050 10223 16593 1665757 5.3 37.4 322 -2.2 3.461664553484 133.33451140935 797.26457588312
218	2201273 9077 16593 1665757 5.3 37.4 322 0.973 12.397975776325 1206.7716109487 7513.8950139057
219	2210350 10173 16593 1665757 5.3 37.4 322 -2.2 3.4974906373536 134.91228549739 810.6985292562
220	2220523 9062 16593 1665757 5.3 37.4 322 0.973 13.163909177917 1206.1066008131 7504.7200395006
221	2229585 10120 16593 1665757 5.3 37.4 322 0.32556130313547 13.88771097434 3964.6317740021 52156.61449219
222	2239705 10123 16593 1665757 5.3 37.4 322 0.34780773977633 13.88909160455 3940.3309257751 51677.572053463
223	2249828 10071 16926 1665757 5.4 37.4 321 30.1 424.69473262627 66898.269299084 18740977.354321
224	2259899 6903 16926 1665757 5.4 37.4 321 826.6 826.6 265338.6 219328886.76
225	2266802 10059 16926 1665757 5.4 37.4 321 3627.3370252928 4019.9 1233671.9795515 4746037253.7351
226	2276861 7224 16926 1665757 5.4 37.4 321 3223.4 3223.4 1034711.4 3335288726.76
227	2284085 10075 16926 1665757 5.4 37.4 321 -2.2 3.4745164485648 135.38088512183 837.53423004052
228	2294160 9041 16926 1665757 5.4 37.4 321 0.973 13.201492431122 1220.9015139186 7723.6746063123
229	2303201 10128 16926 1665757 5.4 37.4 321 -2.2 3.4936312216879 132.23659091735 803.12385246776
230	2313329 9039 16926 1665757 5.4 37.4 321 0.973 13.171656954661 1205.3577559722 7476.6068816971
231	2322368 10074 16926 1665757 5.4 37.4 321 0.33400294346968 13.889201026547 3934.8350567466 51633.208364354
232	2332442 10092 18258 1665757 5.5 37.4 320 -2.2 3.4754251981185 132.28734716051 758.291475783
233	2342534 8975 18258 1665757 5.5 37.4 320 0.973 11.753653858814 1175.8414938712 7075.4981677735
234	2351509 10055 18258 1665757 5.5 37.4 320 0.33581192451878 13.888091953422 3945.9473262626 51838.695918469
235	2361564 10034 18258 1665757 5.5 37.4 320 0.33127791008563 13.889607286009 3925.629747072 51478.36623879
236	2371598 10036 18576 1665757 5.6 37.4 319 -2.2 3.4278621454255 133.0802171317 804.7144524789
237	2381634 9000 18576 1665757 5.6 37.4 319 0.973 13.047510154677 1199.1708998911 7480.3819150748
238	2390634 10163 18576 1665757 5.6 37.4 319 -2.2 3.4944190123351 132.78343401927 721.38597667034
239	2400797 8944 18576 1665757 5.6 37.4 319 0.973 13.225633117596 1136.4163528871 6750.8089091493
240	2409741 6829 26449 1665757 7.3 37.4 302 1623.4 1623.4 490266.8 795899123.11999
241	2416570 9500 26449 1665757 7.3 37.4 302 30.1 390.7959752258 57155.052255116 14662046.088568
242	2426070 6527 26449 1665757 7.3 37.4 302 823.4 823.4 248666.8 204752243.12
243	2432597 9499 26449 1665757 7.3 37.4 302 30.1 395.9776205618 58369.182933514 15204296.732598
244	2442096 9489 26794 1665757 7.4 37.4 301 0.31871795358136 13.888508404929 3606.959752258 46789.49927917
245	2451585 9488 26794 1665757 7.4 37.4 301 0.34101312649203 13.886064380975 3658.7762056181 47787.555990726
246	2461073 6787 28167 1665757 7.5 37.4 300 3226.6 3226.6 967980 3123284268
247	2467860 9443 28167 1665757 7.5 37.4 300 3652.7493091984 4019.9 1156323.9234055 4460847228.116
248	2477303 9418 28167 1665757 7.5 37.4 300 -2.2 3.4964457373244 132.30359662571 777.81270646234
249	2486721 8515 28167 1665757 7.5 37.4 300 0.973 12.602787697272 1139.0518370791 7119.2032842988
250	2495236 9526 28167 1665757 7.5 37.4 300 -2.2 3.4883198202298 134.37073807139 699.45121974473
251	2504762 8545 28167 1665757 7.5 37.4 300 0.973 11.864358640902 1106.4074905863 6456.0513215046
252	2513307 9409 28495 1665757 7.6 37.4 299 3659.2753085506 4019.9 1153980.6664887 4457525132.4277
253	2522716 6766 28495 1665757 7.6 37.4 299 2423.4 2423.4 724596.6 1755987400.44
254	2529482 9406 28495 1665757 7.6 37.4 299 3665.3348130328 4019.9 1155542.4801447 4469510605.3774
255	2538888 6766 28495 1665757 7.6 37.4 299 1623.4 1623.4 485396.6 787992840.43999
256	2545654 6766 28495 1665757 7.6 37.4 299 3223.4 3223.4 963796.6 3106701960.44
257	2552420 9418 28495 1665757 7.6 37.4 299 30.1 392.34488478385 57327.128984463 14809504.184708
258	2561838 9410 28495 1665757 7.6 37.4 299 30.1 389.93752351543 56806.535577044 14555347.336098
259	2571248 6766 28495 1665757 7.6 37.4 299 2426.6 2426.6 725553.4 1760627880.44
260	2578014 9411 28495 1665757 7.6 37.4 299 30.1 393.39224286165 57569.32840913 14908986.851268
261	2587425 6766 28495 1665757 7.6 37.4 299 3226.6 3226.6 964753.4 3112873320.44
262	2594191 6766 28495 1665757 7.6 37.4 299 2426.6 2426.6 725553.4 1760627880.44
263	2600957 9406 28495 1665757 7.6 37.4 299 3653.9913371795 4019.9 1152632.4680719 4447200718.5526
264	2610363 9428 28495 1665757 7.6 37.4 299 0.34931881356752 13.889347210722 3671.5069080161 48116.513950251
265	2619791 9392 28850 1665757 7.7 37.4 298 3660.3450340712 4019.9 1150292.9982038 4443929984.8077
266	2629183 6447 28850 1665757 7.7 37.4 298 823.4 823.4 245373.2 202040292.88
267	2635630 6745 28850 1665757 7.7 37.4 298 2423.4 2423.4 722173.2 1750114532.88
268	2642375 9396 28850 1665757 7.7 37.4 298 30.1 395.15356827344 58034.038383469 15123790.886933
269	2651771 6447 28850 1665757 7.7 37.4 298 826.6 826.6 246326.8 203613732.88
270	2658218 9383 28850 1665757 7.7 37.4 298 3657.1410327021 4019.9 1149526.612925 4438071082.9356
271	2667601 6745 28850 1665757 7.7 37.4 298 1626.6 1626.6 484726.8 788456612.87999
272	2674346 9392 28850 1665757 7.7 37.4 298 3658.7631125694 4019.9 1149939.5892321 4441230587.4785
273	2683738 9480 28850 1665757 7.7 37.4 298 -2.2 3.4507105841767 134.7944035559 769.15407372627
274	2693218 8320 28850 1665757 7.7 37.4 298 0.973 12.011316700234 1134.1312840495 7205.1167339917
275	2701538 9398 28850 1665757 7.7 37.4 298 0.33799777219654 13.888151589883 3606.2469144943 46892.969582599
276	2710936 9388 28850 1665757 7.7 37.4 298 0.32825125940726 13.889830628699 3545.6518696717 45966.75789467
277	2720324 9385 28850 1665757 7.7 37.4 298 0.32146712362184 13.88842233964 3622.4488478385 47406.666012278
278	2729709 9401 28850 1665757 7.7 37.4 298 0.31856611624826 13.886639708104 3598.3752351543 46749.575611983
279	2739110 9396 28850 1665757 7.7 37.4 298 0.31671654501115 13.885865228155 3632.9224286165 47542.990461417
280	2748506 9395 28850 1665757 7.7 37.4 298 0.31551240545814 13.889404504814 3659.086628205 47858.172797459
281	2757901 9392 30451 1665757 7.8 37.4 297 -2.2 3.3721584936954 132.71171692488 689.09869530857
282	2767293 8473 30451 1665757 7.8 37.4 297 0.973 12.361372287385 1082.3677748702 6339.6863730106
283	2775766 9386 30451 1665757 7.8 37.4 297 -2.2 3.4209439725013 133.1123194727 764.77049578096
284	2785152 8393 30451 1665757 7.8 37.4 297 0.973 12.993290697463 1119.5777669093 7150.5949557199
285	2793545 9396 30451 1665757 7.8 37.4 297 -2.2 3.4094450043049 132.87805693793 769.5914192925
286	2802941 8363 30451 1665757 7.8 37.4 297 0.973 13.023366031531 1115.7687218476 7143.6788169626
287	2811304 9443 30451 1665757 7.8 37.4 297 -2.2 3.4997420606669 133.64674985895 693.91003660602
288	2820747 8482 30451 1665757 7.8 37.4 297 0.973 13.123254888721 1074.8013728398 6416.630634982
289	2829229 9415 30451 1665757 7.8 37.4 297 -2.2 3.4479914892052 133.65966924656 771.12307714912
290	2838644 8387 30451 1665757 7.8 37.4 297 0.973 13.004622608803 1124.9774893288 7109.8302880585
291	2847031 9355 30451 1665757 7.8 37.4 297 -2.2 3.4629499239381 133.70959953315 777.65800782199
292	2856386 8435 30451 1665757 7.8 37.4 297 0.973 13.002387943501 1131.2327471717 6939.1589566512
293	2864821 9379 30451 1665757 7.8 37.4 297 0.34983708082465 13.889829795212 3595.5496592876 46888.981200585
294	2874200 9376 30451 1665757 7.8 37.4 297 0.34699718887918 13.889406793481 3650.5356827344 47833.511058617
295	2883576 9367 30451 1665757 7.8 37.4 297 0.3305647061835 13.888756564234 3627.5896729788 47602.184686032
296	2892943 9376 30451 1665757 7.8 37.4 297 0.31655869238311 13.889998596159 3611.368874306 47247.018179659
297	2902319 9317 30606 1665757 7.9 37.4 296 30.1 387.27786311028 55997.797201147 14255652.393742
298	2911636 6407 30606 1665757 7.9 37.4 296 826.6 826.6 244673.6 202247197.76
299	2918043 9317 30606 1665757 7.9 37.4 296 30.1 389.65873975008 56546.939713109 14507334.787011
300	2927360 6703 30606 1665757 7.9 37.4 296 1626.6 1626.6 481473.6 783164957.76
301	2934063 9323 30606 1665757 7.9 37.4 296 3660.4675919389 4019.9 1142314.3805974 4412096159.6762
302	2943386 6703 30606 1665757 7.9 37.4 296 3223.4 3223.4 954126.4 3075531037.76
303	2950089 9358 30606 1665757 7.9 37.4 296 -2.2 3.4937629362103 133.89688531489 681.37989044913
304	2959447 8592 30606 1665757 7.9 37.4 296 0.973 13.27330323978 1076.0746184589 6185.8897899853
305	2968039 9371 30606 1665757 7.9 37.4 296 -2.2 3.4887951002456 133.77083371126 716.37268368591
306	2977410 8416 30606 1665757 7.9 37.4 296 0.973 11.653147686366 1093.5515633454 6443.4153938119
307	2985826 9336 30606 1665757 7.9 37.4 296 -2.2 3.4987903665576 135.38269979919 780.48554659011
308	2995162 8357 30606 1665757 7.9 37.4 296 0.973 12.831946574268 1125.2507065601 7211.1896286656
309	3003519 9330 30606 1665757 7.9 37.4 296 -2.2 3.4676320297876 133.24315780918 794.63238916141
310	3012849 8359 30606 1665757 7.9 37.4 296 0.973 13.323749451315 1134.6280642846 7322.5322450786
311	3021208 9313 30764 1665757 8 37.4 295 0.31717474685633 13.889295826827 3571.7786311028 46445.156618789
312	3030521 9310 30764 1665757 8 37.4 295 0.34657664443599 13.888624541517 3595.5873975008 46964.941705221
313	3039831 9307 30764 1665757 8 37.4 295 0.34870046379394 13.889212362396 3594.3240806108 47048.550309433
314	3049138 9362 31672 1665757 8.1 37.4 294 -2.2 3.4782880349085 133.35181179725 707.26656990554
315	3058500 8383 31672 1665757 8.1 37.4 294 0.973 12.326135332355 1073.9044477443 6529.8997813597
316	3066883 9380 31672 1665757 8.1 37.4 294 -2.2 3.3110145071992 135.17068386399 711.75600023946
317	3076263 8350 31672 1665757 8.1 37.4 294 0.973 12.9457342134 1090.1018135443 6647.6443956817
318	3084613 9325 31672 1665757 8.1 37.4 294 -2.2 3.3594738305546 133.14369392243 808.33945040086
319	3093938 8245 31672 1665757 8.1 37.4 294 0.973 12.067330793227 1130.7854469929 7591.0060008837
320	3102183 6287 42705 1665757 9.9 37.4 276 1623.4 1623.4 448058.4 727378006.56
321	3108470 8721 42705 1665757 9.9 37.4 276 30.1 359.4824770554 48341.466016809 11406212.7998
322	3117191 6011 42705 1665757 9.9 37.4 276 823.4 823.4 227258.4 187124566.56
323	3123202 8733 42705 1665757 9.9 37.4 276 30.1 361.09941054404 48780.296634951 11570067.583067
324	3131935 6287 42705 1665757 9.9 37.4 276 3226.6 3226.6 890541.6 2873421526.56
325	3138222 8730 42705 1665757 9.9 37.4 276 3691.7116153189 4019.9 1069740.1389304 4149095690.8693
[...]
617	12428830 11414 1681988 7401514 37.5 72.1 347 -2.2 3.1397357058013 -27.153392655051 684.93163119881
618	12440244 9752 1681988 7401514 37.5 72.1 347 0.973 12.535890477038 1146.9404474488 7175.4648443439
619	12449996 11397 1681988 7401514 37.5 72.1 347 -2.2 3.1182626878144 -7.0622345193775 595.60556387494
620	12461393 9941 1681988 7401514 37.5 72.1 347 0.973 12.39167565553 1137.3981633828 6634.8227300973
621	12471334 11449 1681988 7401514 37.5 72.1 347 -2.2 3.1265755086206 -0.025572596350682 624.5404899584
622	12482783 9834 1681988 7401514 37.5 72.1 347 0.973 12.468565801491 1158.4106448857 7094.0072750389
623	12492617 11343 1681988 7401514 37.5 72.1 347 13.541306495571 13.889234928645 4759.9489843535 65297.44000089
624	12503960 11512 1681988 7401514 37.5 72.1 347 -2.2 3.1816666875966 1.8300594335888 609.82207393519
625	12515472 9850 1681988 7401514 37.5 72.1 347 0.973 12.652917287458 1163.3046603353 7027.5445737044
626	12525322 11352 1681988 7401514 37.5 72.1 347 10.995707523668 13.889386024021 4728.8604451852 64505.973520739
627	12536674 11342 1681988 7401514 37.5 72.1 347 13.542204162849 13.888638263985 4758.2744762923 65251.567256381
628	12548016 11345 1681988 7401514 37.5 72.1 347 12.462761752106 13.889713355803 4725.0544501081 64372.70454352
629	12559361 11307 1681988 7401514 37.5 72.1 347 -2.2 3.0314274845878 -28.616288077331 627.59991111313
630	12570668 9777 1681988 7401514 37.5 72.1 347 0.973 12.156344467629 1117.3386618918 6528.6762402408
631	12580445 11485 1681988 7401514 37.5 72.1 347 -2.2 3.2420306245331 -1.2416474300437 658.81012223245
632	12591930 9877 1681988 7401514 37.5 72.1 347 0.973 12.87727080207 1185.7785588982 7402.7437830526
633	12601807 11396 1681988 7401514 37.5 72.1 347 -2.2 3.4709083921043 -11.948080531169 712.43980122168
634	12613203 9835 1681988 7401514 37.5 72.1 347 0.973 13.182371565192 1182.2457693514 7556.9626226706
635	12623038 11342 1681988 7401514 37.5 72.1 347 250.35233212028 721.71819954582 169210.50782399 89057981.240563
636	12634380 7911 1681988 7401514 37.5 72.1 347 826.6 826.6 286830.2 237093843.32
637	12642291 11341 1681988 7401514 37.5 72.1 347 10.96089824638 13.88770227113 4727.4820862596 64469.967488486
638	12653632 11290 1681988 7401514 37.5 72.1 347 -2.2 3.3029005846474 -27.359049863077 696.75895049497
639	12664922 9800 1681988 7401514 37.5 72.1 347 0.973 13.080766208876 1162.7813132529 7160.4228439651
640	12674722 8258 1681988 7401514 37.5 72.1 347 2423.4 2423.4 840919.80000001 2037885043.32
641	12682980 11342 1681988 7401514 37.5 72.1 347 226.52495782826 701.06270789968 160943.81979099 81193649.030483
642	12694322 11348 1681988 7401514 37.5 72.1 347 222.05343631688 696.83688410213 159411.30054788 79792376.861541
643	12705670 8258 1681988 7401514 37.5 72.1 347 2426.6 2426.6 842030.19999999 2043270483.32
644	12713928 8258 1681988 7401514 37.5 72.1 347 3226.6 3226.6 1119630.2 3612598803.32
645	12722186 11348 1681988 7401514 37.5 72.1 347 3350.9170896218 3825.3901466696 1245008.0748368 4473542639.1034
646	12733534 11319 1681988 7401514 37.5 72.1 347 13.542750153479 13.889297086266 4758.9697055333 65270.748819116
647	12744853 11323 1681988 7401514 37.5 72.1 347 3350.6461233417 3825.4343760554 1245090.4999851 4474137615.0022
648	12756176 8258 1681988 7401514 37.5 72.1 347 2423.4 2423.4 840919.80000001 2037885043.32
649	12764434 11334 1681988 7401514 37.5 72.1 347 3350.3113077858 3825.0437458933 1244923.7937417 4472941285.0283
650	12775768 8258 1681988 7401514 37.5 72.1 347 1623.4 1623.4 563319.8 914493363.31999
651	12784026 8258 1681988 7401514 37.5 72.1 347 1623.4 1623.4 563319.8 914493363.31999
652	12792284 11337 1681988 7401514 37.5 72.1 347 224.27032181102 698.57936581247 160097.71963548 80407982.095622
653	12803621 7911 1681988 7401514 37.5 72.1 347 823.4 823.4 285719.8 235261683.32
654	12811532 11335 1681988 7401514 37.5 72.1 347 223.86678443588 696.96671648534 159947.61867388 80267242.984634
655	12822867 11441 1681988 7401514 37.5 72.1 347 -2.2 3.3148238830035 2.18085349584 607.87768528189
656	12834308 9865 1681988 7401514 37.5 72.1 347 0.973 13.10990918692 1163.7236730164 6958.0812491643
657	12844173 11354 1681988 7401514 37.5 72.1 347 13.543471349087 13.888883288016 4761.4835234782 65339.565939877
658	12855527 11336 1681988 7401514 37.5 72.1 347 13.07018433998 13.889224238284 4758.5637043653 65260.860182726
659	12866863 11378 1681988 7401514 37.5 72.1 347 -2.2 2.7940889685415 -0.71747455315199 615.38606839998
660	12878241 9875 1681988 7401514 37.5 72.1 347 0.973 11.353656365933 1167.6162107785 6884.5453182933
661	12888116 11486 1681988 7401514 37.5 72.1 347 -2.2 3.2126803634455 -6.8222361498809 612.4793011681
662	12899602 9843 1681988 7401514 37.5 72.1 347 0.973 12.771349114944 1155.517083689 6925.4257941817
663	12909445 11348 1681988 7401514 37.5 72.1 347 13.54146742973 13.887473043425 4761.5943655574 65342.896600914
664	12920793 11343 1681988 7401514 37.5 72.1 347 13.540179920846 13.888573670525 4761.0986994432 65328.997699225
665	12932136 11347 1681988 7401514 37.5 72.1 347 13.541533087622 13.889410054169 4756.8650868264 65213.036975301
666	12943483 11350 1681988 7401514 37.5 72.1 347 12.124604608979 13.889596330803 4744.5397462631 64888.607211583
667	12954833 8258 1681988 7401514 37.5 72.1 347 3223.4 3223.4 1118519.8 3605436723.32
668	12963091 11343 1681988 7401514 37.5 72.1 347 216.23501006123 690.62672566585 157350.08909378 77902798.948528
669	12974434 11340 1681988 7401514 37.5 72.1 347 217.78716825934 692.31381293193 157913.8239727 78411864.136229
670	12985774 8258 1681988 7401514 37.5 72.1 347 3226.6 3226.6 1119630.2 3612598803.32
671	12994032 7911 1681988 7401514 37.5 72.1 347 826.6 826.6 286830.2 237093843.32
672	13001943 11344 1681988 7401514 37.5 72.1 347 3352.2519415355 3826.7443854925 1245559.1302218 4477496056.1177
673	13013287 8258 1681988 7401514 37.5 72.1 347 1626.6 1626.6 564430.2 918102163.31999
674	13021545 11341 1681988 7401514 37.5 72.1 347 3356.3111119288 3830.7580297705 1246947.6931875 4487463639.975
675	13032886 8258 1681988 7401514 37.5 72.1 347 2426.6 2426.6 842030.19999999 2043270483.32
676	13041144 11348 1681988 7401514 37.5 72.1 347 3354.1406461879 3828.9135999739 1246258.8732596 4482527550.4882
677	13052492 11401 1681988 7401514 37.5 72.1 347 -2.2 3.2117721542017 -2.2572372739669 626.13608042553
678	13063893 9846 1681988 7401514 37.5 72.1 347 0.973 12.766578200125 1162.1524757146 7072.9357379761
679	13073739 11353 1681988 7401514 37.5 72.1 347 -2.2 3.1519185187062 -2.1090246964013 622.97165434738
680	13085092 9897 1681988 7401514 37.5 72.1 347 0.973 12.575545065583 1173.8143657993 6947.8690969394
681	13094989 11440 1681988 7401514 37.5 72.1 347 -2.2 3.163289555232 0.014014205313289 650.01639995961
682	13106429 9835 1681988 7401514 37.5 72.1 347 0.973 12.602855829625 1189.1389917507 7294.9898588053
683	13116264 11541 1681988 7401514 37.5 72.1 347 -2.2 3.1678833218757 -14.996113149881 539.5840172325
684	13127805 9867 1681988 7401514 37.5 72.1 347 0.973 12.629710298189 1089.8752390962 6100.1374343605
685	13137672 11336 1681988 7401514 37.5 72.1 347 13.163412637709 13.889615273485 4757.7276373696 65237.225461594
686	13149008 11339 1681988 7401514 37.5 72.1 347 13.540748433068 13.889922883289 4758.9662884119 65270.721095616
687	13160347 11338 1681988 7401514 37.5 72.1 347 13.542556734672 13.889190197408 4758.4803131281 65257.130657047
688	13171685 11346 1681988 7401514 37.5 72.1 347 13.540098773849 13.889900908908 4758.1211570314 65247.519566975
689	13183031 11334 1681988 7401514 37.5 72.1 347 13.541418433757 13.8879047306 4761.5661402067 65342.046885719
690	13194365 11348 1681988 7401514 37.5 72.1 347 3355.6893598736 3830.1666637275 1246729.9672374 4485903335.5818
691	13205713 8258 1681988 7401514 37.5 72.1 347 3223.4 3223.4 1118519.8 3605436723.32
692	13213971 11410 1681988 7401514 37.5 72.1 347 -2.2 3.1567201258149 -5.3355547434853 629.31133444113
693	13225381 9829 1681988 7401514 37.5 72.1 347 0.973 12.586136935194 1170.6388601856 7056.7197771332
694	13235210 11379 1681988 7401514 37.5 72.1 347 -2.2 3.3534838189371 1.4596028401284 632.48199752054
695	13246589 9871 1681988 7401514 37.5 72.1 347 0.973 13.240716815241 1183.9340699526 7153.9222811428
696	13256460 11592 1681988 7401514 37.5 72.1 347 -2.2 3.151439182926 0.30319496138223 574.4420009915
697	13268052 9796 1681988 7401514 37.5 72.1 347 0.973 12.572492251354 1139.209552033 6791.6388130465
698	13277848 11428 1681988 7401514 37.5 72.1 347 -2.2 3.0271919519873 -0.51847785606515 658.2999584689
699	13289276 9812 1681988 7401514 37.5 72.1 347 0.973 12.125747904621 1196.8913714113 7343.8286265074
700	13299088 11367 1681988 7401514 37.5 72.1 347 -2.2 3.1783807468601 -2.3781004004413 660.74016324829
701	13310455 9871 1681988 7401514 37.5 72.1 347 0.973 12.65160205037 1194.0288862001 7260.9380375905
702	13320326 11334 1681988 7401514 37.5 72.1 347 3361.5389620717 3836.1992990322 1248822.4246419 4500951256.1366
703	13331660 7911 1681988 7401514 37.5 72.1 347 823.4 823.4 285719.8 235261683.32
704	13339571 11338 1681988 7401514 37.5 72.1 347 13.540805926486 13.888664407025 4758.3433323933 65253.328718577
705	13350909 11345 1681988 7401514 37.5 72.1 347 220.45245572807 695.1079832798 158832.80638298 79254412.434134
706	13362254 8258 1681988 7401514 37.5 72.1 347 1626.6 1626.6 564430.2 918102163.31999
707	13370512 11465 1681988 7401514 37.5 72.1 347 -2.2 3.1021511940053 -0.67031835345551 521.57827862346
708	13381977 9919 1681988 7401514 37.5 72.1 347 0.973 12.410898756875 1118.3993215258 6117.2616208531
709	13391896 11349 1681988 7401514 37.5 72.1 347 13.541717275812 13.889949017121 4760.2981420202 65307.026997065
710	13403245 11512 1681988 7401514 37.5 72.1 347 -2.2 3.1743914873805 1.4623162381559 593.82101427581
711	13414757 9775 1681988 7401514 37.5 72.1 347 0.973 12.64431207617 1148.6763151477 6966.6979123035
712	13424532 11344 1681988 7401514 37.5 72.1 347 13.540122376578 13.889907521391 4760.1693483961 65303.631509756
713	13435876 11334 1681988 7401514 37.5 72.1 347 218.4866574336 692.49760070794 158165.4317352 78645523.239483
714	13447210 7911 1681988 7401514 37.5 72.1 347 826.6 826.6 286830.2 237093843.32
715	13455121 11541 1681988 7401514 37.5 72.1 347 -2.2 3.2523144525476 -1.1945846717572 629.20617241412
716	13466662 9798 1681988 7401514 37.5 72.1 347 0.973 12.892880854989 1177.6095292786 7271.5706228664
717	13476460 11330 1681988 7401514 37.5 72.1 347 12.489327572795 13.88926173836 4753.6641988563 65130.684502333
718	13487790 11320 1681988 7401514 37.5 72.1 347 -2.2 3.1890742653515 -11.571735078945 675.90582295666
719	13499110 9794 1681988 7401514 37.5 72.1 347 0.973 12.700423909809 1178.5360645148 7269.3577594715
720	13508904 8258 1681988 7401514 37.5 72.1 347 2423.4 2423.4 840919.80000001 2037885043.32
721	13517162 11335 1681988 7401514 37.5 72.1 347 187.93117942742 662.67986440817 147566.54613628 69313411.033022
722	13528497 11347 1681988 7401514 37.5 72.1 347 198.45343401429 673.11444937493 151216.00486237 72448348.166965
723	13539844 8258 1681988 7401514 37.5 72.1 347 2426.6 2426.6 842030.19999999 2043270483.32
724	13548102 8258 1681988 7401514 37.5 72.1 347 3226.6 3226.6 1119630.2 3612598803.32
725	13556360 11353 1681988 7401514 37.5 72.1 347 3390.1571959181 3864.4193371327 1258675.9689995 4572149594.034
726	13567713 11338 1681988 7401514 37.5 72.1 347 3389.2434624569 3863.5573201084 1258367.316961 4569912592.9657
727	13579051 8258 1681988 7401514 37.5 72.1 347 2423.4 2423.4 840919.80000001 2037885043.32
728	13587309 11329 1681988 7401514 37.5 72.1 347 3391.222714373 3865.9115381703 1259160.2533337 4575674790.8758
729	13598638 8258 1681988 7401514 37.5 72.1 347 1623.4 1623.4 563319.8 914493363.31999
730	13606896 8258 1681988 7401514 37.5 72.1 347 1623.4 1623.4 563319.8 914493363.31999
731	13615154 11344 1681988 7401514 37.5 72.1 347 192.62792315263 667.16603777987 149130.03617826 70642908.35618
732	13626498 7911 1681988 7401514 37.5 72.1 347 823.4 823.4 285719.8 235261683.32
733	13634409 11351 1681988 7401514 37.5 72.1 347 184.57487154975 659.25254543071 146432.49633996 68351123.988143
734	13645760 11351 1681988 7401514 37.5 72.1 347 13.542491383266 13.886469820151 4761.2217996144 65332.546110303
735	13657111 11349 1681988 7401514 37.5 72.1 347 13.544283440346 13.889051092006 4760.4321005372 65310.728812899
736	13668460 11341 1681988 7401514 37.5 72.1 347 13.540427523407 13.889802954285 4756.4082841733 65200.66630169
737	13679801 7911 1681988 7401514 37.5 72.1 347 826.6 826.6 286830.2 237093843.32
738	13687712 11335 1681988 7401514 37.5 72.1 347 3388.8786021982 3863.4701683486 1258264.5804446 4569173661.413
739	13699047 11388 1681988 7401514 37.5 72.1 347 -2.2 3.2944595601177 -1.1365952849155 654.62811453418
740	13710435 9765 1681988 7401514 37.5 72.1 347 0.973 13.041402882975 1188.2585225369 7347.0754810148
741	13720200 11381 1681988 7401514 37.5 72.1 347 -2.2 3.1771589971613 -0.0098722745897237 637.33047058122
742	13731581 9844 1681988 7401514 37.5 72.1 347 0.973 12.646300720422 1193.6396781873 7178.0570508231
743	13741425 11392 1681988 7401514 37.5 72.1 347 -2.2 3.4498676131479 -1.3151203595335 617.99508598821
744	13752817 9968 1681988 7401514 37.5 72.1 347 0.973 13.575826472631 1172.2890555249 6907.892848044
745	13762785 11334 1681988 7401514 37.5 72.1 347 13.540504683878 13.889462493369 4756.9616955339 65215.661485146
746	13774119 11343 1681988 7401514 37.5 72.1 347 13.546575031823 13.886573554992 4760.7673694379 65320.000571998
747	13785462 11339 1681988 7401514 37.5 72.1 347 13.540155715167 13.887723714355 4759.244279964 65278.060019051
748	13796801 11346 1681988 7401514 37.5 72.1 347 13.54190891755 13.888532475415 4760.4324764579 65310.656467529
749	13808147 11356 1681988 7401514 37.5 72.1 347 184.66212879112 658.954313274 146334.14669143 68251264.081291
750	13819503 8258 1681988 7401514 37.5 72.1 347 3226.6 3226.6 1119630.2 3612598803.32
751	13827761 8258 1681988 7401514 37.5 72.1 347 1626.6 1626.6 564430.2 918102163.31999
752	13836019 11343 1681988 7401514 37.5 72.1 347 3387.3395623113 3862.1125953627 1257784.3808479 4565693260.7383
753	13847362 8258 1681988 7401514 37.5 72.1 347 2426.6 2426.6 842030.19999999 2043270483.32
754	13855620 11344 1681988 7401514 37.5 72.1 347 3392.6306982475 3867.324717335 1259573.5924166 4578671027.2367
755	13866964 11423 1681988 7401514 37.5 72.1 347 -2.2 3.3558312497335 -0.69458206940908 667.38791299078
756	13878387 9895 1681988 7401514 37.5 72.1 347 0.973 13.257672595878 1191.8370382855 7393.2753780119
757	13888282 11379 1681988 7401514 37.5 72.1 347 -2.2 3.1924584913068 -0.10702912153211 662.33258054558
758	13899661 9823 1681988 7401514 37.5 72.1 347 0.973 12.700970757985 1192.1734508963 7439.1745895222
759	13909484 11507 1681988 7401514 37.5 72.1 347 -2.2 3.1314899298595 -0.90267141198273 547.9816449571
760	13920991 9898 1681988 7401514 37.5 72.1 347 0.973 12.500152709238 1126.9371880027 6406.4387600271
761	13930889 11434 1681988 7401514 37.5 72.1 347 -2.2 3.405571735464 -2.156462593982 572.2416849065
762	13942323 9886 1681988 7401514 37.5 72.1 347 0.973 13.426376621767 1137.5080457298 6607.69790518
763	13952209 11328 1681988 7401514 37.5 72.1 347 13.540333511306 13.888607418523 4759.5463669672 65286.54792569
764	13963537 8258 1681988 7401514 37.5 72.1 347 3223.4 3223.4 1118519.8 3605436723.32
765	13971795 11340 1681988 7401514 37.5 72.1 347 185.61293536874 659.98472274409 146717.63843895 68580002.629625
766	13983135 11365 1681988 7401514 37.5 72.1 347 -2.2 3.1549045930617 -1.110327064991 622.55689843528
767	13994500 9964 1681988 7401514 37.5 72.1 347 0.973 12.563934574851 1175.4593853624 6938.9994264328
768	14004464 11335 1681988 7401514 37.5 72.1 347 13.540731272588 13.888325745505 4756.7032710428 65208.729371642
769	14015799 11338 1681988 7401514 37.5 72.1 347 13.540685205718 13.88898222452 4761.337431674 65335.651169909
770	14027137 11342 1681988 7401514 37.5 72.1 347 13.541679922338 13.889934510712 4760.8096009337 65321.180473038
771	14038479 11331 1681988 7401514 37.5 72.1 347 3389.5995901349 3864.0200727753 1258511.5387734 4570961340.5901
772	14049810 8258 1681988 7401514 37.5 72.1 347 3223.4 3223.4 1118519.8 3605436723.32
773	14058068 11425 1681988 7401514 37.5 72.1 347 -2.2 3.2495780730387 -1.265708437073 619.98622297355
774	14069493 9857 1681988 7401514 37.5 72.1 347 0.973 12.888710081592 1154.1324324733 7028.0802472435
775	14079350 11423 1681988 7401514 37.5 72.1 347 -2.2 3.1336361184949 0.91451269970275 595.45197141886
776	14090773 9938 1681988 7401514 37.5 72.1 347 0.973 12.489887024603 1157.348352369 6765.171380634
777	14100711 11395 1681988 7401514 37.5 72.1 347 -2.2 3.2931907365564 -1.7641270430759 624.11235890123
778	14112106 9878 1681988 7401514 37.5 72.1 347 0.973 13.050139604838 1164.688620999 7069.1245943661
779	14121984 11353 1681988 7401514 37.5 72.1 347 13.542446130984 13.889927245977 4757.498101125 65230.138837462
780	14133337 11331 1681988 7401514 37.5 72.1 347 183.93429886354 658.54148642568 146160.66440795 68114964.011161
781	14144668 8258 1681988 7401514 37.5 72.1 347 1626.6 1626.6 564430.2 918102163.31999
782	14152926 11471 1681988 7401514 37.5 72.1 347 -2.2 3.1709212936694 -1.0412724779453 612.40054329289
783	14164397 9862 1681988 7401514 37.5 72.1 347 0.973 12.623392295542 1154.8837536693 6990.9121435264
784	14174259 11353 1681988 7401514 37.5 72.1 347 13.540543199899 13.88953863814 4758.0937271947 65246.579052673
785	14185612 11338 1681988 7401514 37.5 72.1 347 3389.0274844022 3863.8372645713 1258338.3688878 4569711342.7208
786	14196950 7911 1681988 7401514 37.5 72.1 347 823.4 823.4 285719.8 235261683.32
787	14204861 11499 1681988 7401514 37.5 72.1 347 -2.2 3.0159943896579 -2.4968674281845 588.93667751969
788	14216360 9833 1681988 7401514 37.5 72.1 347 0.973 12.098184431395 1146.6675572127 6719.1947475661
789	14226193 11355 1681988 7401514 37.5 72.1 347 13.546166276708 13.889646484514 4759.7661133758 65292.491029085
790	14237548 11327 1681988 7401514 37.5 72.1 347 182.83558838527 657.3117966395 145774.63214387 67786491.937181
791	14248875 7911 1681988 7401514 37.5 72.1 347 826.6 826.6 286830.2 237093843.32
792	14256786 11466 1681988 7401514 37.5 72.1 347 -2.2 2.9621974871261 -0.78183510084637 617.36337444602
793	14268252 9767 1681988 7401514 37.5 72.1 347 0.973 11.924067519238 1164.5427399498 7098.0703430497
794	14278019 11341 1681988 7401514 37.5 72.1 347 13.541841444941 13.889736554339 4761.781065548 65347.661061327
795	14289360 11492 1681988 7401514 37.5 72.1 347 -2.2 3.3031100948574 0.78387960535475 587.30585335072
796	14300852 9814 1681988 7401514 37.5 72.1 347 0.973 13.069167215298 1162.2443686781 6896.2281504266
797	14310666 11346 1681988 7401514 37.5 72.1 347 13.541756683178 13.889809244147 4758.4388477586 65256.428198174
798	14322012 11311 1681988 7401514 37.5 72.1 347 -2.2 2.9828377228696 -0.65287887619341 698.64629247858
799	14333323 9868 1681988 7401514 37.5 72.1 347 0.973 12.004786443801 1219.0935252329 7653.6377358405
800	14343191 784 6729956 7401514 68.9 72.1 33 3226.6 3226.6 106477.8 343561269.48
801	14343975 1070 6729956 7401514 68.9 72.1 33 3168.9400592409 3212.8 105298.6954385 336000014.05642
802	14345045 1046 6746069 7401514 69 72.1 32 13.547373548683 13.888531126825 438.59940759063 6011.838004547
803	14346091 1005 6767617 7401514 69.1 72.1 31 -2.2 1.9060146340635 0.99924653337803 44.57521327468
804	14347096 901 6767617 7401514 69.1 72.1 31 0.973 8.388097244567 105.32373363092 523.8349834956
805	14347997 841 6870436 7401514 69.6 72.1 26 837.2 871.53440031819 22213.400409034 18981033.974893
806	14348838 618 6870436 7401514 69.6 72.1 26 3226.6 3226.6 83891.6 270684636.56
807	14349456 817 6893648 7401514 69.7 72.1 25 13.576159962656 13.878167062472 343.34400318186 4715.6129773287
808	14350273 760 6919327 7401514 69.8 72.1 24 -2.2 1.6038648703136 -0.58652124751825 38.331870577607
809	14351033 705 6919327 7401514 69.8 72.1 24 0.973 7.3415844806012 80.82167283485 385.88788326558

