version 2
run EmergencyVehicle-0-20220217-12:10:56-23275
attr configname EmergencyVehicle
attr datetime 20220217-12:10:56
attr experiment EmergencyVehicle
attr inifile omnetpp.ini
attr iterationvars ""
attr iterationvarsf ""
attr measurement ""
attr network tlEmergency
attr processid 23275
attr repetition 0
attr replication #0
attr resultdir results
attr runnumber 0
attr seedset 0
param *.playgroundSizeX 5000m
param *.playgroundSizeY 5000m
param *.playgroundSizeZ 50m
param *.annotations.draw true
param *.obstacles.obstacles "xmldoc(\"config.xml\", \"//AnalogueModel[@type='SimpleObstacleShadowing']/obstacles\")"
param *.manager.updateInterval 0.1s
param *.manager.host "\"localhost\""
param *.manager.port 9999
param *.manager.autoShutdown true
param *.manager.launchConfig "xmldoc(\"tl_emergency.launchd.xml\")"
param *.rsu[0].mobility.x 125
param *.rsu[0].mobility.y 325
param *.rsu[0].mobility.z 3
param *.rsu[1].mobility.x 325
param *.rsu[1].mobility.y 325
param *.rsu[1].mobility.z 3
param *.rsu[2].mobility.x 325
param *.rsu[2].mobility.y 125
param *.rsu[2].mobility.z 3
param *.rsu[3].mobility.x 125
param *.rsu[3].mobility.y 125
param *.rsu[3].mobility.z 3
param *.rsu[*].applType "\"TlRSU\""
param *.rsu[*].appl.headerLength "80 bit"
param *.rsu[*].appl.sendBeacons false
param *.rsu[*].appl.dataOnSch true
param *.rsu[*].appl.beaconInterval 1s
param *.rsu[*].appl.beaconUserPriority 7
param *.rsu[*].appl.dataUserPriority 5
param *.rsu[*].nic.phy80211p.antennaOffsetZ "0 m"
param *.connectionManager.sendDirect true
param *.connectionManager.maxInterfDist 2600m
param *.connectionManager.drawMaxIntfDist false
param *.**.nic.mac1609_4.useServiceChannel true
param *.**.nic.mac1609_4.txPower 20mW
param *.**.nic.mac1609_4.bitrate 6Mbps
param *.**.nic.phy80211p.minPowerLevel -110dBm
param *.**.nic.phy80211p.useNoiseFloor true
param *.**.nic.phy80211p.noiseFloor -98dBm
param *.**.nic.phy80211p.decider "xmldoc(\"config.xml\")"
param *.**.nic.phy80211p.analogueModels "xmldoc(\"config.xml\")"
param *.**.nic.phy80211p.usePropagationDelay true
param *.**.nic.phy80211p.antenna "xmldoc(\"antenna.xml\", \"/root/Antenna[@id='monopole']\")"
param *.node[*].nic.phy80211p.antennaOffsetY "0 m"
param *.node[*].nic.phy80211p.antennaOffsetZ "1.895 m"
param *.node[*].applType "\"TlVehicle\""
param *.node[*].appl.headerLength "80 bit"
param *.node[*].appl.sendBeacons false
param *.node[*].appl.dataOnSch true
param *.node[*].appl.beaconInterval 1s
param *.node[*].veinsmobility.x 0
param *.node[*].veinsmobility.y 0
param *.node[*].veinsmobility.z 0
param *.node[*].veinsmobility.setHostSpeed true
param *.node[*0].veinsmobility.accidentCount 0
param *.node[*0].veinsmobility.accidentStart 73s
param *.node[*0].veinsmobility.accidentDuration 50s

vector 0 tlEmergency.node[0].veinsmobility posx ETV
vector 1 tlEmergency.node[0].veinsmobility posy ETV
vector 2 tlEmergency.node[1].veinsmobility posx ETV
vector 3 tlEmergency.node[1].veinsmobility posy ETV
vector 4 tlEmergency.node[2].veinsmobility posx ETV
vector 5 tlEmergency.node[2].veinsmobility posy ETV
vector 6 tlEmergency.node[3].veinsmobility posx ETV
vector 7 tlEmergency.node[3].veinsmobility posy ETV
vector 8 tlEmergency.node[4].veinsmobility posx ETV
vector 9 tlEmergency.node[4].veinsmobility posy ETV
vector 10 tlEmergency.node[5].veinsmobility posx ETV
vector 11 tlEmergency.node[5].veinsmobility posy ETV
vector 12 tlEmergency.node[6].veinsmobility posx ETV
vector 13 tlEmergency.node[6].veinsmobility posy ETV
vector 14 tlEmergency.node[7].veinsmobility posx ETV
vector 15 tlEmergency.node[7].veinsmobility posy ETV
vector 16 tlEmergency.node[0].veinsmobility speed ETV
vector 17 tlEmergency.node[1].veinsmobility speed ETV
vector 18 tlEmergency.node[2].veinsmobility speed ETV
vector 19 tlEmergency.node[3].veinsmobility speed ETV
vector 20 tlEmergency.node[4].veinsmobility speed ETV
vector 21 tlEmergency.node[5].veinsmobility speed ETV
vector 22 tlEmergency.node[6].veinsmobility speed ETV
vector 23 tlEmergency.node[7].veinsmobility speed ETV
vector 24 tlEmergency.node[0].veinsmobility acceleration ETV
vector 25 tlEmergency.node[0].veinsmobility co2emission ETV
vector 26 tlEmergency.node[1].veinsmobility acceleration ETV
vector 27 tlEmergency.node[1].veinsmobility co2emission ETV
vector 28 tlEmergency.node[2].veinsmobility acceleration ETV
vector 29 tlEmergency.node[2].veinsmobility co2emission ETV
vector 30 tlEmergency.node[3].veinsmobility acceleration ETV
vector 31 tlEmergency.node[3].veinsmobility co2emission ETV
vector 32 tlEmergency.node[4].veinsmobility acceleration ETV
vector 33 tlEmergency.node[4].veinsmobility co2emission ETV
vector 34 tlEmergency.node[5].veinsmobility acceleration ETV
vector 35 tlEmergency.node[5].veinsmobility co2emission ETV
vector 36 tlEmergency.node[6].veinsmobility acceleration ETV
vector 37 tlEmergency.node[6].veinsmobility co2emission ETV
vector 38 tlEmergency.node[7].veinsmobility acceleration ETV
vector 39 tlEmergency.node[7].veinsmobility co2emission ETV
vector 40 tlEmergency.node[8].veinsmobility posx ETV
vector 41 tlEmergency.node[8].veinsmobility posy ETV
vector 42 tlEmergency.node[9].veinsmobility posx ETV
vector 43 tlEmergency.node[9].veinsmobility posy ETV
vector 44 tlEmergency.node[10].veinsmobility posx ETV
vector 45 tlEmergency.node[10].veinsmobility posy ETV
vector 46 tlEmergency.node[11].veinsmobility posx ETV
vector 47 tlEmergency.node[11].veinsmobility posy ETV
vector 48 tlEmergency.node[12].veinsmobility posx ETV
vector 49 tlEmergency.node[12].veinsmobility posy ETV
vector 50 tlEmergency.node[13].veinsmobility posx ETV
vector 51 tlEmergency.node[13].veinsmobility posy ETV
vector 52 tlEmergency.node[8].veinsmobility speed ETV
vector 53 tlEmergency.node[9].veinsmobility speed ETV
vector 54 tlEmergency.node[10].veinsmobility speed ETV
vector 55 tlEmergency.node[11].veinsmobility speed ETV
vector 56 tlEmergency.node[12].veinsmobility speed ETV
vector 57 tlEmergency.node[13].veinsmobility speed ETV
vector 58 tlEmergency.node[8].veinsmobility acceleration ETV
vector 59 tlEmergency.node[8].veinsmobility co2emission ETV
vector 60 tlEmergency.node[9].veinsmobility acceleration ETV
vector 61 tlEmergency.node[9].veinsmobility co2emission ETV
vector 62 tlEmergency.node[10].veinsmobility acceleration ETV
vector 63 tlEmergency.node[10].veinsmobility co2emission ETV
vector 64 tlEmergency.node[11].veinsmobility acceleration ETV
vector 65 tlEmergency.node[11].veinsmobility co2emission ETV
vector 66 tlEmergency.node[12].veinsmobility acceleration ETV
vector 67 tlEmergency.node[12].veinsmobility co2emission ETV
vector 68 tlEmergency.node[13].veinsmobility acceleration ETV
vector 69 tlEmergency.node[13].veinsmobility co2emission ETV
vector 70 tlEmergency.node[14].veinsmobility posx ETV
vector 71 tlEmergency.node[14].veinsmobility posy ETV
vector 72 tlEmergency.node[15].veinsmobility posx ETV
vector 73 tlEmergency.node[15].veinsmobility posy ETV
vector 74 tlEmergency.node[14].veinsmobility speed ETV
vector 75 tlEmergency.node[15].veinsmobility speed ETV
vector 76 tlEmergency.node[14].veinsmobility acceleration ETV
vector 77 tlEmergency.node[14].veinsmobility co2emission ETV
vector 78 tlEmergency.node[15].veinsmobility acceleration ETV
vector 79 tlEmergency.node[15].veinsmobility co2emission ETV
vector 80 tlEmergency.node[16].veinsmobility posx ETV
vector 81 tlEmergency.node[16].veinsmobility posy ETV
vector 82 tlEmergency.node[17].veinsmobility posx ETV
vector 83 tlEmergency.node[17].veinsmobility posy ETV
vector 84 tlEmergency.node[18].veinsmobility posx ETV
vector 85 tlEmergency.node[18].veinsmobility posy ETV
vector 86 tlEmergency.node[16].veinsmobility speed ETV
vector 87 tlEmergency.node[19].veinsmobility posx ETV
vector 88 tlEmergency.node[19].veinsmobility posy ETV
vector 89 tlEmergency.node[20].veinsmobility posx ETV
vector 90 tlEmergency.node[20].veinsmobility posy ETV
vector 91 tlEmergency.node[21].veinsmobility posx ETV
vector 92 tlEmergency.node[21].veinsmobility posy ETV
vector 93 tlEmergency.node[16].veinsmobility acceleration ETV
vector 94 tlEmergency.node[16].veinsmobility co2emission ETV
vector 95 tlEmergency.node[17].veinsmobility speed ETV
vector 96 tlEmergency.node[18].veinsmobility speed ETV
vector 97 tlEmergency.node[17].veinsmobility acceleration ETV
vector 98 tlEmergency.node[17].veinsmobility co2emission ETV
vector 99 tlEmergency.node[18].veinsmobility acceleration ETV
vector 100 tlEmergency.node[18].veinsmobility co2emission ETV
vector 101 tlEmergency.node[19].veinsmobility speed ETV
vector 102 tlEmergency.node[20].veinsmobility speed ETV
vector 103 tlEmergency.node[21].veinsmobility speed ETV
vector 104 tlEmergency.node[19].veinsmobility acceleration ETV
vector 105 tlEmergency.node[19].veinsmobility co2emission ETV
vector 106 tlEmergency.node[20].veinsmobility acceleration ETV
vector 107 tlEmergency.node[20].veinsmobility co2emission ETV
vector 108 tlEmergency.node[21].veinsmobility acceleration ETV
vector 109 tlEmergency.node[21].veinsmobility co2emission ETV
0	10	0.1	129.8
0	27	0.2	129.8
0	52	0.3	129.8
0	77	0.4	129.8
0	177	0.5	129.8
0	202	0.6	129.8
0	451	0.7	129.8
0	476	0.8	129.8
0	501	0.9	129.8
0	749	1	129.8
0	774	1.1	129.8
0	1023	1.2	129.8
0	1198	1.3	129.8
0	1296	1.4	129.8
0	1621	1.5	126.6
0	1874	1.6	126.6
0	2021	1.7	126.6
0	2390	1.8	126.6
0	2649	1.9	126.6
0	3241	2	126.6
0	3385	2.1	126.6
0	3533	2.2	126.6
0	3903	2.3	126.6
0	4384	2.4	126.6
0	4753	2.5	126.6
0	5010	2.6	126.6
0	5663	2.7	126.6
0	5827	2.8	126.6
0	6237	2.9	126.6
0	7181	3	126.6
0	7929	3.1	126.6
0	8615	3.2	126.6
0	8668	3.3	126.6
0	8880	3.4	126.6
0	10197	3.5	126.6
0	11200	3.6	126.6
1	10	0.1	419.9
1	27	0.2	419.87013966243
1	52	0.3	419.8123596795
1	77	0.4	419.72884429356
1	177	0.5	419.62088423178
1	202	0.6	419.48626183767
1	451	0.7	419.32368039061
1	476	0.8	419.13343421219
1	501	0.9	418.92401855555
1	749	1	418.69096086693
1	774	1.1	418.43741781975
1	1023	1.2	418.15792297673
1	1198	1.3	417.8563418686
1	1296	1.4	417.53770021616
1	1621	1.5	417.19373337995
1	1874	1.6	416.83452942156
1	2021	1.7	416.44676456655
1	2390	1.8	416.0340008955
1	2649	1.9	415.60371450024
1	3241	2	415.15353362932
1	3385	2.1	414.6795477644
1	3533	2.2	414.17850775576
1	3903	2.3	413.65646033077
1	4384	2.4	413.10972960277
1	4753	2.5	412.53572513278
1	5010	2.6	411.94392115214
1	5663	2.7	411.32614692956
1	5827	2.8	410.68023157858
1	6237	2.9	410.01150194679
1	7181	3	409.31621189998
1	7929	3.1	408.59164330892
1	8615	3.2	407.85023423918
1	8668	3.3	407.08470004635
1	8880	3.4	406.29405785475
1	10197	3.5	405.47476708984
1	11200	3.6	404.63798959123
2	10	0.1	30.1
2	27	0.2	30.128704360023
2	52	0.3	30.185058991953
2	77	0.4	30.270183476393
2	177	0.5	30.383313434409
2	202	0.6	30.525919133286
2	451	0.7	30.690152719326
2	476	0.8	30.876973990442
2	501	0.9	31.088480076519
2	749	1	31.324519442193
2	774	1.1	31.586125339934
2	1023	1.2	31.8698243893
2	1198	1.3	32.178559039188
2	1296	1.4	32.506394152425
2	1621	1.5	32.851410123887
2	1874	1.6	33.216763942392
2	2021	1.7	33.598363091192
2	2390	1.8	34.004251012626
2	2649	1.9	34.436865080541
2	3241	2	34.889533429851
2	3385	2.1	35.366062091374
2	3533	2.2	35.870135991996
2	3903	2.3	36.394563964914
2	4384	2.4	36.934552820632
2	4753	2.5	37.493945460345
2	5010	2.6	38.07813817246
2	5663	2.7	38.683329822348
2	5827	2.8	39.311083339842
2	6237	2.9	39.961881405819
2	7181	3	40.640916537607
2	7929	3.1	41.344726787269
2	8615	3.2	42.069751622903
2	8668	3.3	42.818676107016
2	8880	3.4	43.595557076308
2	10197	3.5	44.394276001251
2	11200	3.6	45.21522228103
3	10	0.1	329.8
3	27	0.2	329.8
3	52	0.3	329.8
3	77	0.4	329.8
3	177	0.5	329.8
3	202	0.6	329.8
3	451	0.7	329.8
3	476	0.8	329.8
3	501	0.9	329.8
3	749	1	329.8
3	774	1.1	329.8
3	1023	1.2	329.8
3	1198	1.3	329.8
3	1296	1.4	329.8
3	1621	1.5	326.6
3	1874	1.6	326.6
3	2021	1.7	326.6
3	2390	1.8	326.6
3	2649	1.9	326.6
3	3241	2	326.6
3	3385	2.1	326.6
3	3533	2.2	326.6
3	3903	2.3	326.6
3	4384	2.4	326.6
3	4753	2.5	326.6
3	5010	2.6	326.6
3	5663	2.7	326.6
3	5827	2.8	326.6
3	6237	2.9	326.6
3	7181	3	326.6
3	7929	3.1	326.6
3	8615	3.2	326.6
3	8668	3.3	326.6
3	8880	3.4	326.6
3	10197	3.5	326.6
3	11200	3.6	326.6
4	10	0.1	30.1
4	27	0.2	30.128763295795
4	52	0.3	30.184992625984
4	77	0.4	30.270440072875
4	177	0.5	30.385488175947
4	202	0.6	30.524173549849
4	451	0.7	30.688284739442
4	476	0.8	30.877547504139
4	501	0.9	31.091421934216
4	749	1	31.323530320116
4	774	1.1	31.57837448191
4	1023	1.2	31.863168147238
4	1198	1.3	32.174402016707
4	1296	1.4	32.501781221007
4	1621	1.5	32.848872697802
4	1874	1.6	33.225457853939
4	2021	1.7	33.623908495898
4	2390	1.8	34.045022525231
4	2649	1.9	34.489133314394
4	3241	2	34.950552827082
4	3385	2.1	35.43519685356
4	3533	2.2	35.943669850029
4	3903	2.3	36.471505980966
4	4384	2.4	37.019870881337
4	4753	2.5	37.584939569698
4	5010	2.6	38.175644109427
4	5663	2.7	38.792106267397
4	5827	2.8	39.434497423221
4	6237	2.9	40.102853907092
4	7181	3	40.799499030584
4	7929	3.1	41.520406259644
4	8615	3.2	42.270908700047
4	8668	3.3	43.051005115916
4	8880	3.4	43.847243094658
4	10197	3.5	44.664928598619
4	11200	3.6	45.510102095449
5	10	0.1	129.8
5	27	0.2	129.8
5	52	0.3	129.8
5	77	0.4	129.8
5	177	0.5	129.8
5	202	0.6	129.8
5	451	0.7	129.8
5	476	0.8	129.8
5	501	0.9	129.8
5	749	1	129.8
5	774	1.1	129.8
5	1023	1.2	129.8
5	1198	1.3	129.8
5	1296	1.4	129.8
5	1621	1.5	126.6
5	1874	1.6	126.6
5	2021	1.7	126.6
5	2390	1.8	126.6
5	2649	1.9	126.6
5	3241	2	126.6
5	3385	2.1	126.6
5	3533	2.2	126.6
5	3903	2.3	126.6
5	4384	2.4	126.6
5	4753	2.5	126.6
5	5010	2.6	126.6
5	5663	2.7	126.6
5	5827	2.8	126.6
5	6237	2.9	126.6
5	7181	3	126.6
5	7929	3.1	126.6
5	8615	3.2	126.6
5	8668	3.3	126.6
5	8880	3.4	126.6
5	10197	3.5	126.6
5	11200	3.6	126.6
6	10	0.1	120.2
6	27	0.2	120.2
6	52	0.3	120.2
6	77	0.4	120.2
6	177	0.5	120.2
6	202	0.6	120.2
6	451	0.7	120.2
6	476	0.8	120.2
6	501	0.9	120.2
6	749	1	120.2
6	774	1.1	120.2
6	1023	1.2	120.2
6	1198	1.3	120.2
6	1296	1.4	120.2
6	1621	1.5	123.4
6	1874	1.6	123.4
6	2021	1.7	123.4
6	2390	1.8	123.4
6	2649	1.9	123.4
6	3241	2	123.4
6	3385	2.1	123.4
6	3533	2.2	123.4
6	3903	2.3	123.4
6	4384	2.4	123.4
6	4753	2.5	123.4
6	5010	2.6	123.4
6	5663	2.7	123.4
6	5827	2.8	123.4
6	6237	2.9	123.4
6	7181	3	123.4
6	7929	3.1	123.4
6	8615	3.2	123.4
6	8668	3.3	123.4
6	8880	3.4	123.4
6	10197	3.5	123.4
6	11200	3.6	123.4
7	10	0.1	30.1
7	27	0.2	30.129169088468
7	52	0.3	30.186900292352
7	77	0.4	30.272893330989
7	177	0.5	30.388782440855
7	202	0.6	30.534320492094
7	451	0.7	30.709229497467
7	476	0.8	30.908752750779
7	501	0.9	31.12884461939
7	749	1	31.377022802786
7	774	1.1	31.644809166527
7	1023	1.2	31.93515071991
7	1198	1.3	32.243709029779
7	1296	1.4	32.578426037935
7	1621	1.5	32.9319779787
7	1874	1.6	33.30729771693
7	2021	1.7	33.703724785915
7	2390	1.8	34.119424014425
7	2649	1.9	34.552459256773
7	3241	2	35.006453048566
7	3385	2.1	35.477577656061
7	3533	2.2	35.970529015896
7	3903	2.3	36.480771599672
7	4384	2.4	37.014659361495
7	4753	2.5	37.569193667873
7	5010	2.6	38.144039562525
7	5663	2.7	38.743119731553
7	5827	2.8	39.368917996506
7	6237	2.9	40.02248475192
7	7181	3	40.699363209821
7	7929	3.1	41.405816320403
7	8615	3.2	42.127814489525
7	8668	3.3	42.874061035827
7	8880	3.4	43.638431706628
7	10197	3.5	44.424868953606
7	11200	3.6	45.232785532127
8	10	0.1	320.2
8	27	0.2	320.2
8	52	0.3	320.2
8	77	0.4	320.2
8	177	0.5	320.2
8	202	0.6	320.2
8	451	0.7	320.2
8	476	0.8	320.2
8	501	0.9	320.2
8	749	1	320.2
8	774	1.1	320.2
8	1023	1.2	320.2
8	1198	1.3	320.2
8	1296	1.4	320.2
8	1621	1.5	320.2
8	1874	1.6	320.2
8	2021	1.7	320.2
8	2390	1.8	320.2
8	2649	1.9	320.2
8	3241	2	320.2
8	3385	2.1	320.2
8	3533	2.2	320.2
8	3903	2.3	320.2
8	4384	2.4	320.2
8	4753	2.5	320.2
8	5010	2.6	320.2
8	5663	2.7	320.2
8	5827	2.8	320.2
8	6237	2.9	320.2
8	7181	3	320.2
8	7929	3.1	320.2
8	8615	3.2	320.2
8	8668	3.3	320.2
8	8880	3.4	320.2
8	10197	3.5	320.2
8	11200	3.6	320.2
9	10	0.1	30.1
9	27	0.2	30.129548553318
9	52	0.3	30.187686588507
9	77	0.4	30.27473584649
9	177	0.5	30.387328848866
9	202	0.6	30.523317405809
9	451	0.7	30.687694083463
9	476	0.8	30.873405415425
9	501	0.9	31.080891353749
9	749	1	31.310263860963
9	774	1.1	31.565498804971
9	1023	1.2	31.842648983178
9	1198	1.3	32.149257666761
9	1296	1.4	32.477661862164
9	1621	1.5	32.824969960422
9	1874	1.6	33.199121701147
9	2021	1.7	33.600525616595
9	2390	1.8	34.020383215114
9	2649	1.9	34.457675351651
9	3241	2	34.911524036765
9	3385	2.1	35.381637888042
9	3533	2.2	35.870926982526
9	3903	2.3	36.379859365953
9	4384	2.4	36.911310044166
9	4753	2.5	37.46772473568
9	5010	2.6	38.047506235439
9	5663	2.7	38.657098495018
9	5827	2.8	39.291894492533
9	6237	2.9	39.950695209407
9	7181	3	40.636581787333
9	7929	3.1	41.347029001138
9	8615	3.2	42.085458985654
9	8668	3.3	42.844672098001
9	8880	3.4	43.630535844166
9	10197	3.5	44.441499747953
9	11200	3.6	45.274616201537
10	10	0.1	109.5
10	27	0.2	109.47013102446
10	52	0.3	109.41209386377
10	77	0.4	109.32507123053
10	177	0.5	109.2118978389
10	202	0.6	109.07166709762
10	451	0.7	108.90969597224
10	476	0.8	108.72070791203
10	501	0.9	108.50941119167
10	749	1	108.27494263626
10	774	1.1	108.0211351451
10	1023	1.2	107.74506231203
10	1198	1.3	107.4530464804
10	1296	1.4	107.14313714038
10	1621	1.5	106.81052918616
10	1874	1.6	106.46169355854
10	2021	1.7	106.08962594164
10	2390	1.8	105.69538968601
10	2649	1.9	105.28100074882
10	3241	2	104.84298212062
10	3385	2.1	104.3799746586
10	3533	2.2	103.88804425583
10	3903	2.3	103.37572986805
10	4384	2.4	102.84689341292
10	4753	2.5	102.3002595629
10	5010	2.6	101.72993342025
10	5663	2.7	101.13449271034
10	5827	2.8	100.51276199949
10	6237	2.9	99.861456835908
10	7181	3	99.183946966254
10	7929	3.1	98.489007631456
10	8615	3.2	97.772415210029
10	8668	3.3	97.032456621452
10	8880	3.4	96.269781197778
10	10197	3.5	95.489963502143
10	11200	3.6	94.685003800237
11	10	0.1	320.2
11	27	0.2	320.2
11	52	0.3	320.2
11	77	0.4	320.2
11	177	0.5	320.2
11	202	0.6	320.2
11	451	0.7	320.2
11	476	0.8	320.2
11	501	0.9	320.2
11	749	1	320.2
11	774	1.1	320.2
11	1023	1.2	320.2
11	1198	1.3	320.2
11	1296	1.4	320.2
11	1621	1.5	320.2
11	1874	1.6	320.2
11	2021	1.7	320.2
11	2390	1.8	320.2
11	2649	1.9	320.2
11	3241	2	320.2
11	3385	2.1	320.2
11	3533	2.2	320.2
11	3903	2.3	320.2
11	4384	2.4	320.2
11	4753	2.5	320.2
11	5010	2.6	320.2
11	5663	2.7	320.2
11	5827	2.8	320.2
11	6237	2.9	320.2
11	7181	3	320.2
11	7929	3.1	320.2
11	8615	3.2	320.2
11	8668	3.3	320.2
11	8880	3.4	320.2
11	10197	3.5	320.2
11	11200	3.6	320.2
12	10	0.1	419.9
12	27	0.2	419.87037638543
12	52	0.3	419.81278168115
12	77	0.4	419.72538886437
12	177	0.5	419.6098800461
12	202	0.6	419.46929536442
12	451	0.7	419.30003577894
12	476	0.8	419.10120927905
12	501	0.9	418.87925406416
12	749	1	418.6287655272
12	774	1.1	418.36124058475
12	1023	1.2	418.07269889751
12	1198	1.3	417.76597517647
12	1296	1.4	417.43211541532
12	1621	1.5	417.07971311563
12	1874	1.6	416.70292891766
12	2021	1.7	416.30809286445
12	2390	1.8	415.89751752592
12	2649	1.9	415.4596937092
12	3241	2	415.00284980155
12	3385	2.1	414.52770125887
12	3533	2.2	414.03153259348
12	3903	2.3	413.51431668051
12	4384	2.4	412.96944104712
12	4753	2.5	412.4012529051
12	5010	2.6	411.80540468093
12	5663	2.7	411.18105608056
12	5827	2.8	410.52714310728
12	6237	2.9	409.84667450066
12	7181	3	409.14270221516
12	7929	3.1	408.41373555882
12	8615	3.2	407.6569119047
12	8668	3.3	406.87985157767
12	8880	3.4	406.0736374243
12	10197	3.5	405.24825325249
12	11200	3.6	404.4069473714
13	10	0.1	320.2
13	27	0.2	320.2
13	52	0.3	320.2
13	77	0.4	320.2
13	177	0.5	320.2
13	202	0.6	320.2
13	451	0.7	320.2
13	476	0.8	320.2
13	501	0.9	320.2
13	749	1	320.2
13	774	1.1	320.2
13	1023	1.2	320.2
13	1198	1.3	320.2
13	1296	1.4	320.2
13	1621	1.5	323.4
13	1874	1.6	323.4
13	2021	1.7	323.4
13	2390	1.8	323.4
13	2649	1.9	323.4
13	3241	2	323.4
13	3385	2.1	323.4
13	3533	2.2	323.4
13	3903	2.3	323.4
13	4384	2.4	323.4
13	4753	2.5	323.4
13	5010	2.6	323.4
13	5663	2.7	323.4
13	5827	2.8	323.4
13	6237	2.9	323.4
13	7181	3	323.4
13	7929	3.1	323.4
13	8615	3.2	323.4
13	8668	3.3	323.4
13	8880	3.4	323.4
13	10197	3.5	323.4
13	11200	3.6	323.4
14	10	0.1	329.8
14	27	0.2	329.8
14	52	0.3	329.8
14	77	0.4	329.8
14	177	0.5	329.8
14	202	0.6	329.8
14	451	0.7	329.8
14	476	0.8	329.8
14	501	0.9	329.8
14	749	1	329.8
14	774	1.1	329.8
14	1023	1.2	329.8
14	1198	1.3	329.8
14	1296	1.4	329.8
14	1621	1.5	326.6
14	1874	1.6	326.6
14	2021	1.7	326.6
14	2390	1.8	326.6
14	2649	1.9	326.6
14	3241	2	326.6
14	3385	2.1	326.6
14	3533	2.2	326.6
14	3903	2.3	326.6
14	4384	2.4	326.6
14	4753	2.5	326.6
14	5010	2.6	326.6
14	5663	2.7	326.6
14	5827	2.8	326.6
14	6237	2.9	326.6
14	7181	3	326.6
14	7929	3.1	326.6
14	8615	3.2	326.6
14	8668	3.3	326.6
14	8880	3.4	326.6
14	10197	3.5	326.6
14	11200	3.6	326.6
15	10	0.1	419.9
15	27	0.2	419.87082033374
15	52	0.3	419.81165743531
15	77	0.4	419.72605168634
15	177	0.5	419.61512782526
15	202	0.6	419.47998467421
15	451	0.7	419.3178709885
15	476	0.8	419.12692967523
15	501	0.9	418.91514253691
15	749	1	418.68063321571
15	774	1.1	418.42409868363
15	1023	1.2	418.14509305536
15	1198	1.3	417.84223834238
15	1296	1.4	417.51634225557
15	1621	1.5	417.16386510956
15	1874	1.6	416.78750326891
15	2021	1.7	416.39080155143
15	2390	1.8	415.96493032456
15	2649	1.9	415.51074165871
15	3241	2	415.03838101603
15	3385	2.1	414.54659582793
15	3533	2.2	414.02912021765
15	3903	2.3	413.48382029976
15	4384	2.4	412.91527564066
15	4753	2.5	412.32552418474
15	5010	2.6	411.71033141344
15	5663	2.7	411.06714983943
15	5827	2.8	410.40186425836
15	6237	2.9	409.70786450474
15	7181	3	408.99322193429
15	7929	3.1	408.26023099578
15	8615	3.2	407.50753368193
15	8668	3.3	406.73955045103
15	8880	3.4	405.95057946146
15	10197	3.5	405.1438179997
15	11200	3.6	404.31768621525
16	27	0.2	0.2986033757322
16	52	0.3	0.57779982923311
16	77	0.4	0.83515385944963
16	177	0.5	1.0796006178193
16	202	0.6	1.3462239410817
16	451	0.7	1.6258144705711
16	476	0.8	1.9024617842272
16	501	0.9	2.0941565664325
16	749	1	2.3305768862005
16	774	1.1	2.5354304717866
16	1023	1.2	2.7949484301387
16	1198	1.3	3.0158110813475
16	1296	1.4	3.1864165243698
16	1621	1.5	3.4396683621225
16	1874	1.6	3.5920395839149
16	2021	1.7	3.8776485500513
16	2390	1.8	4.1276367105548
16	2649	1.9	4.302863952518
16	3241	2	4.5018087092093
16	3385	2.1	4.7398586492175
16	3533	2.2	5.0104000863973
16	3903	2.3	5.2204742498817
16	4384	2.4	5.4673072800744
16	4753	2.5	5.7400446998542
16	5010	2.6	5.9180398063739
16	5663	2.7	6.1777422258402
16	5827	2.8	6.4591535097924
16	6237	2.9	6.6872963179199
16	7181	3	6.9529004681336
16	7929	3.1	7.2456859105388
16	8615	3.2	7.4140906974212
16	8668	3.3	7.655341928313
16	8880	3.4	7.9064219159777
16	10197	3.5	8.1929076490579
16	11200	3.6	8.3677749861386
17	27	0.2	0.28704360023257
17	52	0.3	0.56354631929423
17	77	0.4	0.8512448444042
17	177	0.5	1.13129958016
17	202	0.6	1.4260569887685
17	451	0.7	1.6423358604038
17	476	0.8	1.8682127111603
17	501	0.9	2.1150608607659
17	749	1	2.3603936567413
17	774	1.1	2.6160589774103
17	1023	1.2	2.8369904936632
17	1198	1.3	3.0873464988769
17	1296	1.4	3.278351132373
17	1621	1.5	3.4501597146146
17	1874	1.6	3.6535381850545
17	2021	1.7	3.8159914879935
17	2390	1.8	4.0588792143381
17	2649	1.9	4.3261406791505
17	3241	2	4.5266834931091
17	3385	2.1	4.7652866152223
17	3533	2.2	5.0407390062223
17	3903	2.3	5.2442797291783
17	4384	2.4	5.3998885571832
17	4753	2.5	5.5939263971281
17	5010	2.6	5.8419271211481
17	5663	2.7	6.0519164988879
17	5827	2.8	6.2775351749317
17	6237	2.9	6.5079806597779
17	7181	3	6.7903513178745
17	7929	3.1	7.0381024966241
17	8615	3.2	7.2502483563373
17	8668	3.3	7.4892448411315
17	8880	3.4	7.7688096929217
17	10197	3.5	7.9871892494258
17	11200	3.6	8.2094627977923
18	27	0.2	0.28763295794721
18	52	0.3	0.56229330188871
18	77	0.4	0.85447446890928
18	177	0.5	1.1504810307288
18	202	0.6	1.3868537390168
18	451	0.7	1.6411118959266
18	476	0.8	1.892627646971
18	501	0.9	2.1387443007674
18	749	1	2.321083859003
18	774	1.1	2.5484416179429
18	1023	1.2	2.8479366532775
18	1198	1.3	3.1123386946871
18	1296	1.4	3.2737920430038
18	1621	1.5	3.4709147679518
18	1874	1.6	3.7658515613657
18	2021	1.7	3.9845064195936
18	2390	1.8	4.2111402933268
18	2649	1.9	4.4411078916295
18	3241	2	4.6141951268786
18	3385	2.1	4.846440264782
18	3533	2.2	5.084729964695
18	3903	2.3	5.2783613093678
18	4384	2.4	5.4836490037051
18	4753	2.5	5.6506868836135
18	5010	2.6	5.907045397292
18	5663	2.7	6.1646215796951
18	5827	2.8	6.4239115582386
18	6237	2.9	6.6835648387103
18	7181	3	6.9664512349249
18	7929	3.1	7.2090722906011
18	8615	3.2	7.5050244040278
18	8668	3.3	7.8009641586876
18	8880	3.4	7.9623797874272
18	10197	3.5	8.1768550396039
18	11200	3.6	8.4517349683054
19	27	0.2	0.2916908846749
19	52	0.3	0.57731203884754
19	77	0.4	0.85993038636526
19	177	0.5	1.1588910986633
19	202	0.6	1.4553805123903
19	451	0.7	1.7490900537258
19	476	0.8	1.995232533125
19	501	0.9	2.2009186861124
19	749	1	2.4817818339534
19	774	1.1	2.6778636374161
19	1023	1.2	2.9034155338253
19	1198	1.3	3.0855830986933
19	1296	1.4	3.347170081555
19	1621	1.5	3.5355194076496
19	1874	1.6	3.7531973823039
19	2021	1.7	3.9642706898456
19	2390	1.8	4.1569922850999
19	2649	1.9	4.3303524234864
19	3241	2	4.5399379179297
19	3385	2.1	4.7112460749522
19	3533	2.2	4.9295135983448
19	3903	2.3	5.1024258377562
19	4384	2.4	5.3388776182379
19	4753	2.5	5.5453430637783
19	5010	2.6	5.7484589465145
19	5663	2.7	5.990801690281
19	5827	2.8	6.2579826495327
19	6237	2.9	6.5356675541385
19	7181	3	6.7687845790068
19	7929	3.1	7.0645311058274
19	8615	3.2	7.2199816912187
19	8668	3.3	7.4624654630207
19	8880	3.4	7.6437067080064
19	10197	3.5	7.8643724697766
19	11200	3.6	8.0791657852133
20	27	0.2	0.29548553318018
20	52	0.3	0.58138035188765
20	77	0.4	0.87049257983595
20	177	0.5	1.1259300237533
20	202	0.6	1.3598855694344
20	451	0.7	1.6437667765377
20	476	0.8	1.857113319624
20	501	0.9	2.0748593832351
20	749	1	2.2937250721405
20	774	1.1	2.5523494400835
20	1023	1.2	2.7715017820699
20	1198	1.3	3.0660868358323
20	1296	1.4	3.2840419540288
20	1621	1.5	3.4730809825812
20	1874	1.6	3.7415174072482
20	2021	1.7	4.0140391544778
20	2390	1.8	4.1985759851862
20	2649	1.9	4.3729213653705
20	3241	2	4.5384868511455
20	3385	2.1	4.7011385127659
20	3533	2.2	4.8928909448431
20	3903	2.3	5.0893238342707
20	4384	2.4	5.3145067821247
20	4753	2.5	5.564146915147
20	5010	2.6	5.7978149975873
20	5663	2.7	6.0959225957854
20	5827	2.8	6.3479599751522
20	6237	2.9	6.5880071687386
20	7181	3	6.8588657792648
20	7929	3.1	7.1044721380448
20	8615	3.2	7.384299845166
20	8668	3.3	7.5921311234696
20	8880	3.4	7.8586374616473
20	10197	3.5	8.1096390378652
20	11200	3.6	8.3311645358442
21	27	0.2	0.29868975537247
21	52	0.3	0.58037160696436
21	77	0.4	0.87022633240383
21	177	0.5	1.1317339162897
21	202	0.6	1.4023074127322
21	451	0.7	1.6197112538193
21	476	0.8	1.889880602081
21	501	0.9	2.1129672036855
21	749	1	2.3446855540284
21	774	1.1	2.5380749116418
21	1023	1.2	2.7607283307249
21	1198	1.3	2.9201583162542
21	1296	1.4	3.099093400199
21	1621	1.5	3.3260795421676
21	1874	1.6	3.4883562761951
21	2021	1.7	3.7206761690449
21	2390	1.8	3.9423625562583
21	2649	1.9	4.1438893719121
21	3241	2	4.3801862820644
21	3385	2.1	4.630074620178
21	3533	2.2	4.9193040276422
21	3903	2.3	5.1231438778817
21	4384	2.4	5.288364551229
21	4753	2.5	5.4663385001836
21	5010	2.6	5.7032614264997
21	5663	2.7	5.9544070991232
21	5827	2.8	6.2173071084787
21	6237	2.9	6.5130516358661
21	7181	3	6.7750986965383
21	7929	3.1	6.9493933479777
21	8615	3.2	7.16592421427
21	8668	3.3	7.3995858857767
21	8880	3.4	7.6267542367345
21	10197	3.5	7.7981769563524
21	11200	3.6	8.0495970190629
22	27	0.2	0.29623614571989
22	52	0.3	0.57594704275244
22	77	0.4	0.87392816784474
22	177	0.5	1.1550881827024
22	202	0.6	1.4058468168005
22	451	0.7	1.6925958547709
22	476	0.8	1.9882649989307
22	501	0.9	2.2195521489205
22	749	1	2.5048853695385
22	774	1.1	2.6752494245416
22	1023	1.2	2.885416872337
22	1198	1.3	3.0672372104749
22	1296	1.4	3.3385976114925
22	1621	1.5	3.5240229968597
22	1874	1.6	3.7678419797132
22	2021	1.7	3.9483605320831
22	2390	1.8	4.1057533853487
22	2649	1.9	4.3782381671979
22	3241	2	4.5684390764484
22	3385	2.1	4.751485426832
22	3533	2.2	4.9616866538916
22	3903	2.3	5.1721591296755
22	4384	2.4	5.4487563338978
22	4753	2.5	5.681881420271
22	5010	2.6	5.9584822417037
22	5663	2.7	6.2434860036276
22	5827	2.8	6.5391297327969
22	6237	2.9	6.8046860662089
22	7181	3	7.0397228550606
22	7929	3.1	7.2896665633631
22	8615	3.2	7.5682365412216
22	8668	3.3	7.7706032702325
22	8880	3.4	8.0621415337639
22	10197	3.5	8.2538417180509
22	11200	3.6	8.413058810923
23	27	0.2	0.29179666262702
23	52	0.3	0.59162898422603
23	77	0.4	0.85605748970859
23	177	0.5	1.1092386108559
23	202	0.6	1.3514315104418
23	451	0.7	1.6211368571129
23	476	0.8	1.9094131327602
23	501	0.9	2.1178713831819
23	749	1	2.3450932120327
23	774	1.1	2.5653453207746
23	1023	1.2	2.7900562826895
23	1198	1.3	3.0285471298035
23	1296	1.4	3.2589608681041
23	1621	1.5	3.5247714601226
23	1874	1.6	3.7636184064208
23	2021	1.7	3.9670171748267
23	2390	1.8	4.2587122686908
23	2649	1.9	4.5418866584894
23	3241	2	4.7236064268162
23	3385	2.1	4.9178518810195
23	3533	2.2	5.1747561028346
23	3903	2.3	5.4529991788559
23	4384	2.4	5.6854465910468
23	4753	2.5	5.8975145592007
23	5010	2.6	6.1519277129208
23	5663	2.7	6.4318157401636
23	5827	2.8	6.652855810628
23	6237	2.9	6.9399975362469
23	7181	3	7.1464257045302
23	7929	3.1	7.3299093850425
23	8615	3.2	7.526973138482
23	8668	3.3	7.6798323089957
23	8880	3.4	7.8897098957912
23	10197	3.5	8.0676146175598
23	11200	3.6	8.2613178445261
24	52	0.3	2.7919645350091
24	77	0.4	2.5735403021652
24	177	0.5	2.444467583697
24	202	0.6	2.6662332326239
24	451	0.7	2.7959052948939
24	476	0.8	2.7664731365607
24	501	0.9	1.9169478220532
24	749	1	2.3642031976805
24	774	1.1	2.0485358558607
24	1023	1.2	2.5951795835204
24	1198	1.3	2.2086265120888
24	1296	1.4	1.7060544302221
24	1621	1.5	2.5325183775276
24	1874	1.6	1.5237122179242
24	2021	1.7	2.8560896613635
24	2390	1.8	2.4998816050356
24	2649	1.9	1.7522724196315
24	3241	2	1.9894475669134
24	3385	2.1	2.380499400082
24	3533	2.2	2.7054143717978
24	3903	2.3	2.1007416348439
24	4384	2.4	2.4683303019265
24	4753	2.5	2.7273741977988
24	5010	2.6	1.7799510651967
24	5663	2.7	2.5970241946634
24	5827	2.8	2.8141128395218
24	6237	2.9	2.2814280812745
24	7181	3	2.6560415021377
24	7929	3.1	2.9278544240515
24	8615	3.2	1.6840478688246
24	8668	3.3	2.4125123089179
24	8880	3.4	2.5107998766471
24	10197	3.5	2.8648573308019
24	11200	3.6	1.7486733708065
25	52	0.3	1.5266712718525
25	77	0.4	1.6683234432254
25	177	0.5	1.7982069155111
25	202	0.6	2.0401998571908
25	451	0.7	2.2843214977327
25	476	0.8	2.4708202194011
25	501	0.9	2.1793382291858
25	749	1	2.5514961445002
25	774	1.1	2.485549604857
25	1023	1.2	2.9949129952249
25	1198	1.3	2.8632694756448
25	1296	1.4	2.5768256261442
25	1621	1.5	3.3790456601584
25	1874	1.6	2.6066110292832
25	2021	1.7	3.9714976870076
25	2390	1.8	3.8023970032281
25	2649	1.9	3.1420189589766
25	3241	2	3.4940185165218
25	3385	2.1	4.0677465131991
25	3533	2.2	4.630126491204
25	3903	2.3	4.0179940157851
25	4384	2.4	4.6411639649334
25	4753	2.5	5.1772859904487
25	5010	2.6	3.9532844102033
25	5663	2.7	5.2963372868519
25	5827	2.8	5.8270894666105
25	6237	2.9	5.1370587121035
25	7181	3	5.9270518920761
25	7929	3.1	6.6073222179521
25	8615	3.2	4.5143538792348
25	8668	3.3	5.9716723514882
25	8880	3.4	6.3212611525429
25	10197	3.5	7.2126628548694
25	11200	3.6	5.0942208341077
26	52	0.3	2.7650271906166
26	77	0.4	2.8769852510997
26	177	0.5	2.8005473575582
26	202	0.6	2.9475740860851
26	451	0.7	2.162788716353
26	476	0.8	2.258768507565
26	501	0.9	2.4684814960559
26	749	1	2.4533279597534
26	774	1.1	2.5566532066908
26	1023	1.2	2.2093151625289
26	1198	1.3	2.5035600521369
26	1296	1.4	1.9100463349605
26	1621	1.5	1.7180858224165
26	1874	1.6	2.0337847043993
26	2021	1.7	1.6245330293896
26	2390	1.8	2.4288772634463
26	2649	1.9	2.6726146481233
26	3241	2	2.005428139586
26	3385	2.1	2.3860312211327
26	3533	2.2	2.75452391
26	3903	2.3	2.0354072295595
26	4384	2.4	1.5560882800492
26	4753	2.5	1.9403783994494
26	5010	2.6	2.4800072401995
26	5663	2.7	2.0998937773984
26	5827	2.8	2.2561867604381
26	6237	2.9	2.3044548484613
26	7181	3	2.8237065809662
26	7929	3.1	2.477511787496
26	8615	3.2	2.121458597132
26	8668	3.3	2.3899648479419
26	8880	3.4	2.795648517902
26	10197	3.5	2.1837955650408
26	11200	3.6	2.222735483665
27	52	0.3	1.5127332437598
27	77	0.4	1.7413345789402
27	177	0.5	1.9282578353823
27	202	0.6	2.1920823744065
27	451	0.7	2.0456736412024
27	476	0.8	2.2177112040086
27	501	0.9	2.4711628481072
27	749	1	2.6206678101153
27	774	1.1	2.8497463012728
27	1023	1.2	2.7595070335574
27	1198	1.3	3.1244272160001
27	1296	1.4	2.780496987642
27	1621	1.5	2.7087982314525
27	1874	1.6	3.0815048063061
27	2021	1.7	2.7932249236789
27	2390	1.8	3.6878807096912
27	2649	1.9	4.1126403361852
27	3241	2	3.5247190429907
27	3385	2.1	4.0900732942694
27	3533	2.2	4.7112426765878
27	3903	2.3	3.9488009343875
27	4384	2.4	3.4100875660485
27	4753	2.5	4.0119159720361
27	5010	2.6	4.9018457014282
27	5663	2.7	4.4851407646169
27	5827	2.8	4.8490344474082
27	6237	2.9	5.0637688654693
27	7181	3	6.0874142415255
27	7929	3.1	5.6840368992882
27	8615	3.2	5.2018046803805
27	8668	3.3	5.8237527797803
27	8880	3.4	6.76232773667
27	10197	3.5	5.7459887574704
27	11200	3.6	5.9547746705934
28	52	0.3	2.746603439415
28	77	0.4	2.9218116702056
28	177	0.5	2.9600656181953
28	202	0.6	2.3637270828801
28	451	0.7	2.5425815690981
28	476	0.8	2.515157510444
28	501	0.9	2.4611665379637
28	749	1	1.8233955823559
28	774	1.1	2.2735775893989
28	1023	1.2	2.9949503533458
28	1198	1.3	2.6440204140963
28	1296	1.4	1.6145334831672
28	1621	1.5	1.9712272494799
28	1874	1.6	2.9493679341394
28	2021	1.7	2.1865485822782
28	2390	1.8	2.2663387373323
28	2649	1.9	2.2996759830276
28	3241	2	1.7308723524911
28	3385	2.1	2.3224513790337
28	3533	2.2	2.38289699913
28	3903	2.3	1.9363134467276
28	4384	2.4	2.0528769433731
28	4753	2.5	1.6703787990846
28	5010	2.6	2.5635851367842
28	5663	2.7	2.5757618240314
28	5827	2.8	2.5928997854353
28	6237	2.9	2.5965328047168
28	7181	3	2.828863962146
28	7929	3.1	2.4262105567614
28	8615	3.2	2.9595211342676
28	8668	3.3	2.9593975465978
28	8880	3.4	1.6141562873963
28	10197	3.5	2.1447525217663
28	11200	3.6	2.7487992870156
29	52	0.3	1.5093410610004
29	77	0.4	1.7529613287244
29	177	0.5	1.9863652197999
29	202	0.6	1.9671808800133
29	451	0.7	2.1951868123984
29	476	0.8	2.3491484876632
29	501	0.9	2.4826540005248
29	749	1	2.2430974806602
29	774	1.1	2.6308390057437
29	1023	1.2	3.3051106746112
29	1198	1.3	3.246134247937
29	1296	1.4	2.5450099741374
29	1621	1.5	2.9302125358804
29	1874	1.6	3.9733567839666
29	2021	1.7	3.4077247662889
29	2390	1.8	3.6201169406406
29	2649	1.9	3.7936901797925
29	3241	2	3.2664305125134
29	3385	2.1	4.0669129255703
29	3533	2.2	4.2874812357804
29	3903	2.3	3.8413689118902
29	4384	2.4	4.102762936408
29	4753	2.5	3.6740046684205
29	5010	2.6	5.0635111226511
29	5663	2.7	5.2557649330671
29	5827	2.8	5.4586092056703
29	6237	2.9	5.6423323345673
29	7181	3	6.2267155864231
29	7929	3.1	5.7076416615703
29	8615	3.2	6.8640111740427
29	8668	3.3	7.0939365123079
29	8880	3.4	4.6381976808393
29	10197	3.5	5.7814528053726
29	11200	3.6	7.172424591316
30	52	0.3	2.8562115417264
30	77	0.4	2.8261834751773
30	177	0.5	2.9896071229804
30	202	0.6	2.9648941372702
30	451	0.7	2.9370954133547
30	476	0.8	2.4614247939921
30	501	0.9	2.056861529874
30	749	1	2.80863147841
30	774	1.1	1.9608180346266
30	1023	1.2	2.2555189640929
30	1198	1.3	1.82167564868
30	1296	1.4	2.6158698286163
30	1621	1.5	1.8834932609461
30	1874	1.6	2.1767797465436
30	2021	1.7	2.1107330754166
30	2390	1.8	1.9272159525426
30	2649	1.9	1.7336013838649
30	3241	2	2.0958549444331
30	3385	2.1	1.7130815702258
30	3533	2.2	2.1826752339257
30	3903	2.3	1.7291223941138
30	4384	2.4	2.3645178048173
30	4753	2.5	2.0646544554038
30	5010	2.6	2.0311588273616
30	5663	2.7	2.4234274376649
30	5827	2.8	2.6718095925171
30	6237	2.9	2.7768490460585
30	7181	3	2.3311702486826
30	7929	3.1	2.9574652682058
30	8615	3.2	1.5545058539137
30	8668	3.3	2.4248377180193
30	8880	3.4	1.8124124498572
30	10197	3.5	2.2066576177021
30	11200	3.6	2.1479331543669
31	52	0.3	1.535258306903
31	77	0.4	1.7372491582189
31	177	0.5	2.0010242963737
31	202	0.6	2.2204191760771
31	451	0.7	2.4329463195702
31	476	0.8	2.3905624493289
31	501	0.9	2.3081605796974
31	749	1	2.9110021994227
31	774	1.1	2.5063976771548
31	1023	1.2	2.8305605840072
31	1198	1.3	2.616206883776
31	1296	1.4	3.3850701651353
31	1621	1.5	2.8894856160393
31	1874	1.6	3.2648803110227
31	2021	1.7	3.3235633077773
31	2390	1.8	3.2479220334984
31	2649	1.9	3.1356098964812
31	3241	2	3.6307781291368
31	3385	2.1	3.2919810424092
31	3533	2.2	3.9519116554395
31	3903	2.3	3.4946878938364
31	4384	2.4	4.4239583814208
31	4753	2.5	4.1525215167789
31	5010	2.6	4.2187776191308
31	5663	2.7	4.9177623201958
31	5827	2.8	5.464078323856
31	6237	2.9	5.8248735741651
31	7181	3	5.2679594627534
31	7929	3.1	6.5186017494344
31	8615	3.2	4.1979244354469
31	8668	3.3	5.8693389953881
31	8880	3.4	4.8586935426841
31	10197	3.5	5.7166188341122
31	11200	3.6	5.7306504682025
32	52	0.3	2.8589481870747
32	77	0.4	2.891122279483
32	177	0.5	2.5543744391739
32	202	0.6	2.3395554568104
32	451	0.7	2.8388120710328
32	476	0.8	2.1334654308636
32	501	0.9	2.177460636111
32	749	1	2.1886568890537
32	774	1.1	2.5862436794299
32	1023	1.2	2.191523419864
32	1198	1.3	2.9458505376242
32	1296	1.4	2.1795511819655
32	1621	1.5	1.8903902855236
32	1874	1.6	2.6843642466702
32	2021	1.7	2.7252174722962
32	2390	1.8	1.8453683070838
32	2649	1.9	1.7434538018424
32	3241	2	1.6556548577501
32	3385	2.1	1.6265166162048
32	3533	2.2	1.9175243207719
32	3903	2.3	1.9643288942752
32	4384	2.4	2.2518294785405
32	4753	2.5	2.4964013302233
32	5010	2.6	2.3366808244027
32	5663	2.7	2.9810759819811
32	5827	2.8	2.5203737936681
32	6237	2.9	2.4004719358636
32	7181	3	2.7085861052619
32	7929	3.1	2.4560635878006
32	8615	3.2	2.7982770712115
32	8668	3.3	2.0783127830364
32	8880	3.4	2.6650633817771
32	10197	3.5	2.5100157621782
32	11200	3.6	2.2152549797902
33	52	0.3	1.5386387904284
33	77	0.4	1.7585783157022
33	177	0.5	1.8575740188566
33	202	0.6	1.9425813730368
33	451	0.7	2.3142947386202
33	476	0.8	2.1550418114612
33	501	0.9	2.2997362140826
33	749	1	2.4316267975697
33	774	1.1	2.8255017669385
33	1023	1.2	2.7094523220047
33	1198	1.3	3.4373390387456
33	1296	1.4	2.9967088174554
33	1621	1.5	2.8636918147668
33	1874	1.6	3.7158358873709
33	2021	1.7	3.945942210927
33	2390	1.8	3.1866250057444
33	2649	1.9	3.1660552521929
33	3241	2	3.1484869128066
33	3385	2.1	3.1891826032876
33	3533	2.2	3.6179733165503
33	3903	2.3	3.7769888485572
33	4384	2.4	4.264372630665
33	4753	2.5	4.7419008942303
33	5010	2.6	4.672672454603
33	5663	2.7	5.8045439710849
33	5827	2.8	5.2956711189629
33	6237	2.9	5.2654721524581
33	7181	3	5.9479361433133
33	7929	3.1	5.6910631846773
33	8615	3.2	6.4832743867958
33	8668	3.3	5.3193670692628
33	8880	3.4	6.5813832205025
33	10197	3.5	6.4561109425601
33	11200	3.6	6.013126196103
34	52	0.3	2.8168185159189
34	77	0.4	2.8985472543947
34	177	0.5	2.6150758388583
34	202	0.6	2.7057349644256
34	451	0.7	2.1740384108706
34	476	0.8	2.7016934826175
34	501	0.9	2.2308660160443
34	749	1	2.3171835034299
34	774	1.1	1.9338935761339
34	1023	1.2	2.2265341908311
34	1198	1.3	1.5942998552928
34	1296	1.4	1.7893508394482
34	1621	1.5	2.2698614196852
34	1874	1.6	1.6227673402755
34	2021	1.7	2.3231989284977
34	2390	1.8	2.2168638721341
34	2649	1.9	2.0152681565378
34	3241	2	2.362969101523
34	3385	2.1	2.4988833811367
34	3533	2.2	2.8922940746415
34	3903	2.3	2.0383985023946
34	4384	2.4	1.6522067334736
34	4753	2.5	1.779739489546
34	5010	2.6	2.3692292631604
34	5663	2.7	2.5114567262353
34	5827	2.8	2.6290000935551
34	6237	2.9	2.9574452738743
34	7181	3	2.6204706067219
34	7929	3.1	1.7429465143941
34	8615	3.2	2.1653086629231
34	8668	3.3	2.3366167150671
34	8880	3.4	2.271683509578
34	10197	3.5	1.7142271961784
34	11200	3.6	2.5142006271053
35	52	0.3	1.5320023439699
35	77	0.4	1.759937104838
35	177	0.5	1.8779851268055
35	202	0.6	2.0923216522604
35	451	0.7	2.0371642020642
35	476	0.8	2.4323080201633
35	501	0.9	2.3488139663159
35	749	1	2.5336674688254
35	774	1.1	2.4168635038915
35	1023	1.2	2.7265136002632
35	1198	1.3	2.3751702998286
35	1296	1.4	2.5986829669128
35	1621	1.5	3.0933364803247
35	1874	1.6	2.6464501963857
35	2021	1.7	3.3774164546828
35	2390	1.8	3.4121030582198
35	2649	1.9	3.329077369815
35	3241	2	3.8234725661906
35	3385	2.1	4.1308980915923
35	3533	2.2	4.7872702734443
35	3903	2.3	3.8863273210486
35	4384	2.4	3.484504052372
35	4753	2.5	3.7333919283247
35	5010	2.6	4.6587350983562
35	5663	2.7	5.0207138257508
35	5827	2.8	5.3713417924344
35	6237	2.9	6.0918527905395
35	7181	3	5.7442609241128
35	7929	3.1	4.3953358643848
35	8615	3.2	5.229138675591
35	8668	3.3	5.6712729298848
35	8880	3.4	5.6943593224154
35	10197	3.5	4.7516430391184
35	11200	3.6	6.4239264529149
36	52	0.3	2.7971089703256
36	77	0.4	2.979811250923
36	177	0.5	2.8116001485765
36	202	0.6	2.5075863409813
36	451	0.7	2.8674903797038
36	476	0.8	2.9566914415982
36	501	0.9	2.3128714998977
36	749	1	2.8533322061806
36	774	1.1	1.7036405500305
36	1023	1.2	2.1016744779543
36	1198	1.3	1.8182033813791
36	1296	1.4	2.7136040101759
36	1621	1.5	1.8542538536713
36	1874	1.6	2.4381898285355
36	2021	1.7	1.805185523699
36	2390	1.8	1.5739285326563
36	2649	1.9	2.724847818492
36	3241	2	1.9020090925042
36	3385	2.1	1.8304635038367
36	3533	2.2	2.1020122705959
36	3903	2.3	2.104724757839
36	4384	2.4	2.7659720422234
36	4753	2.5	2.3312508637318
36	5010	2.6	2.7660082143266
36	5663	2.7	2.8500376192387
36	5827	2.8	2.9564372916939
36	6237	2.9	2.6555633341195
36	7181	3	2.3503678885172
36	7929	3.1	2.4994370830245
36	8615	3.2	2.7856997785857
36	8668	3.3	2.0236672901083
36	8880	3.4	2.915382635314
36	10197	3.5	1.9170018428704
36	11200	3.6	1.5921709287213
37	52	0.3	1.5260491145238
37	77	0.4	1.7798179321807
37	177	0.5	1.9485465353835
37	202	0.6	2.0276677556432
37	451	0.7	2.361792838696
37	476	0.8	2.6234033535114
37	501	0.9	2.4552641826283
37	749	1	2.9547796622858
37	774	1.1	2.3392196581472
37	1023	1.2	2.7128856066074
37	1198	1.3	2.6046527618844
37	1296	1.4	3.4578629045884
37	1621	1.5	2.8588401377398
37	1874	1.6	3.5107001770332
37	2021	1.7	3.0238882339789
37	2390	1.8	2.8718363675345
37	2649	1.9	4.204097113258
37	3241	2	3.4332897302606
37	3385	2.1	3.4451997456355
37	3533	2.2	3.8741515235188
37	3903	2.3	3.9958057483775
37	4384	2.4	5.0199288884835
37	4753	2.5	4.5932989803476
37	5010	2.6	5.3889514706769
37	5663	2.7	5.722063724054
37	5827	2.8	6.1104171092188
37	6237	2.9	5.8223012552613
37	7181	3	5.4693958662618
37	7929	3.1	5.8884732416464
37	8615	3.2	6.5961007138307
37	8668	3.3	5.3179515662858
37	8880	3.4	7.2118452771789
37	10197	3.5	5.373363785615
37	11200	3.6	4.799056714008
38	52	0.3	2.9983232159901
38	77	0.4	2.6442850548256
38	177	0.5	2.531811211473
38	202	0.6	2.4219289958592
38	451	0.7	2.6970534667106
38	476	0.8	2.8827627564729
38	501	0.9	2.0845825042177
38	749	1	2.2722182885081
38	774	1.1	2.2025210874184
38	1023	1.2	2.2471096191494
38	1198	1.3	2.3849084711401
38	1296	1.4	2.3041373830056
38	1621	1.5	2.6581059201853
38	1874	1.6	2.3884694629814
38	2021	1.7	2.033987684059
38	2390	1.8	2.9169509386411
38	2649	1.9	2.8317438979866
38	3241	2	1.8171976832673
38	3385	2.1	1.9424545420334
38	3533	2.2	2.5690422181506
38	3903	2.3	2.7824307602132
38	4384	2.4	2.3244741219096
38	4753	2.5	2.1206796815386
38	5010	2.6	2.5441315372009
38	5663	2.7	2.7988802724285
38	5827	2.8	2.2104007046437
38	6237	2.9	2.8714172561886
38	7181	3	2.0642816828331
38	7929	3.1	1.8348368051229
38	8615	3.2	1.9706375343958
38	8668	3.3	1.5285917051369
38	8880	3.4	2.0987758679548
38	10197	3.5	1.7790472176857
38	11200	3.6	1.9370322696632
39	52	0.3	1.566067987862
39	77	0.4	1.696896233338
39	177	0.5	1.8404559940325
39	202	0.6	1.9642312163617
39	451	0.7	2.2423197809161
39	476	0.8	2.5293099813576
39	501	0.9	2.2770291738599
39	749	1	2.508502531997
39	774	1.1	2.5970165942723
39	1023	1.2	2.7575632045656
39	1198	1.3	2.9993598830324
39	1296	1.4	3.0801013185539
39	1621	1.5	3.5420614419382
39	1874	1.6	3.4629000813245
39	2021	1.7	3.2517323498079
39	2390	1.8	4.3163870981135
39	2649	1.9	4.4373677204819
39	3241	2	3.4162811948584
39	3385	2.1	3.6604262755352
39	3533	2.2	4.5763254108808
39	3903	2.3	5.0446263770543
39	4384	2.4	4.5862204652552
39	4753	2.5	4.4275689877123
39	5010	2.6	5.2002438141289
39	5663	2.7	5.7833039237345
39	5827	2.8	5.0021555239937
39	6237	2.9	6.2782220989905
39	7181	3	5.0437486306973
39	7929	3.1	4.7412295076732
39	8615	3.2	5.0872330454606
39	8668	3.3	4.3514966403889
39	8880	3.4	5.5266228380687
39	10197	3.5	5.0066819720937
39	11200	3.6	5.4171997948852
40	1621	1.5	129.8
40	1874	1.6	129.8
40	2021	1.7	129.8
40	2390	1.8	129.8
40	2649	1.9	129.8
40	3241	2	129.8
40	3385	2.1	129.8
40	3533	2.2	129.8
40	3903	2.3	129.8
40	4384	2.4	129.8
40	4753	2.5	129.8
40	5010	2.6	129.8
40	5663	2.7	129.8
40	5827	2.8	129.8
40	6237	2.9	129.8
40	7181	3	129.8
40	7929	3.1	126.6
40	8615	3.2	126.6
40	8668	3.3	126.6
40	8880	3.4	126.6
40	10197	3.5	126.6
40	11200	3.6	126.6
41	1621	1.5	419.9
41	1874	1.6	419.87006165023
41	2021	1.7	419.81077653801
41	2390	1.8	419.72197511778
41	2649	1.9	419.60724154234
41	3241	2	419.46805965773
41	3385	2.1	419.30149854009
41	3533	2.2	419.10544286668
41	3903	2.3	418.88459063737
41	4384	2.4	418.64346791921
41	4753	2.5	418.377616003
41	5010	2.6	418.08189927557
41	5663	2.7	417.75789801337
41	5827	2.8	417.41317143294
41	6237	2.9	417.03939067001
41	7181	3	416.64789054703
41	7929	3.1	416.23437870206
41	8615	3.2	415.79933449925
41	8668	3.3	415.34643828262
41	8880	3.4	414.87410637982
41	10197	3.5	414.37178690463
41	11200	3.6	413.84024816712
42	1621	1.5	30.1
42	1874	1.6	30.128726642337
42	2021	1.7	30.185011263718
42	2390	1.8	30.267981692892
42	2649	1.9	30.377160992562
42	3241	2	30.511238370734
42	3385	2.1	30.668412411794
42	3533	2.2	30.85332177397
42	3903	2.3	31.06682779377
42	4384	2.4	31.301563838383
42	4753	2.5	31.56400531579
42	5010	2.6	31.855593195945
42	5663	2.7	32.171888919903
42	5827	2.8	32.512039609972
42	6237	2.9	32.874673836285
42	7181	3	33.258147978484
42	7929	3.1	33.669375586569
42	8615	3.2	34.110249212183
42	8668	3.3	34.574519484412
42	8880	3.4	35.066134503764
42	10197	3.5	35.584012258286
42	11200	3.6	36.117275437841
43	1621	1.5	329.8
43	1874	1.6	329.8
43	2021	1.7	329.8
43	2390	1.8	329.8
43	2649	1.9	329.8
43	3241	2	329.8
43	3385	2.1	329.8
43	3533	2.2	329.8
43	3903	2.3	329.8
43	4384	2.4	329.8
43	4753	2.5	329.8
43	5010	2.6	329.8
43	5663	2.7	329.8
43	5827	2.8	329.8
43	6237	2.9	329.8
43	7181	3	329.8
43	7929	3.1	326.6
43	8615	3.2	326.6
43	8668	3.3	326.6
43	8880	3.4	326.6
43	10197	3.5	326.6
43	11200	3.6	326.6
44	1621	1.5	30.1
44	1874	1.6	30.129055834136
44	2021	1.7	30.185342629788
44	2390	1.8	30.270316582385
44	2649	1.9	30.382600328116
44	3241	2	30.522458668971
44	3385	2.1	30.6843914434
44	3533	2.2	30.874973633116
44	3903	2.3	31.093293700341
44	4384	2.4	31.335567151951
44	4753	2.5	31.595759380787
44	5010	2.6	31.873167963959
44	5663	2.7	32.179779956862
44	5827	2.8	32.509597024218
44	6237	2.9	32.860648370516
44	7181	3	33.234574744154
44	7929	3.1	33.634896972827
44	8615	3.2	34.050917338523
44	8668	3.3	34.487250547841
44	8880	3.4	34.953315899853
44	10197	3.5	35.434439364532
44	11200	3.6	35.934534911172
45	1621	1.5	129.8
45	1874	1.6	129.8
45	2021	1.7	129.8
45	2390	1.8	129.8
45	2649	1.9	129.8
45	3241	2	129.8
45	3385	2.1	129.8
45	3533	2.2	129.8
45	3903	2.3	129.8
45	4384	2.4	129.8
45	4753	2.5	129.8
45	5010	2.6	129.8
45	5663	2.7	129.8
45	5827	2.8	129.8
45	6237	2.9	129.8
45	7181	3	126.6
45	7929	3.1	126.6
45	8615	3.2	126.6
45	8668	3.3	126.6
45	8880	3.4	126.6
45	10197	3.5	126.6
45	11200	3.6	126.6
46	1621	1.5	120.2
46	1874	1.6	120.2
46	2021	1.7	120.2
46	2390	1.8	120.2
46	2649	1.9	120.2
46	3241	2	120.2
46	3385	2.1	120.2
46	3533	2.2	120.2
46	3903	2.3	120.2
46	4384	2.4	120.2
46	4753	2.5	120.2
46	5010	2.6	120.2
46	5663	2.7	120.2
46	5827	2.8	120.2
46	6237	2.9	120.2
46	7181	3	120.2
46	7929	3.1	123.4
46	8615	3.2	123.4
46	8668	3.3	123.4
46	8880	3.4	123.4
46	10197	3.5	123.4
46	11200	3.6	123.4
47	1621	1.5	30.1
47	1874	1.6	30.129185360267
47	2021	1.7	30.186176153889
47	2390	1.8	30.270782242283
47	2649	1.9	30.380224491288
47	3241	2	30.518092515958
47	3385	2.1	30.684433935467
47	3533	2.2	30.8798992176
47	3903	2.3	31.104367354098
47	4384	2.4	31.353086169503
47	4753	2.5	31.625512286839
47	5010	2.6	31.91633763658
47	5663	2.7	32.223720140194
47	5827	2.8	32.550870924033
47	6237	2.9	32.900035784181
47	7181	3	33.2662685245
47	7929	3.1	33.648493722468
47	8615	3.2	34.056629076018
47	8668	3.3	34.487599452894
47	8880	3.4	34.936387298872
47	10197	3.5	35.40797548728
47	11200	3.6	35.90367190379
48	1621	1.5	419.9
48	1874	1.6	419.87100277357
48	2021	1.7	419.81407922295
48	2390	1.8	419.73114306355
48	2649	1.9	419.62291599823
48	3241	2	419.48758327001
48	3385	2.1	419.32888020144
48	3533	2.2	419.14331205557
48	3903	2.3	418.92967355431
48	4384	2.4	418.68948294756
48	4753	2.5	418.42551118361
48	5010	2.6	418.13427750602
48	5663	2.7	417.82349700076
48	5827	2.8	417.48747315249
48	6237	2.9	417.13455520365
48	7181	3	416.75885478485
48	7929	3.1	416.36217109122
48	8615	3.2	415.94610848626
48	8668	3.3	415.50035464879
48	8880	3.4	415.03914945902
48	10197	3.5	414.5604309088
48	11200	3.6	414.05489744525
49	1621	1.5	320.2
49	1874	1.6	320.2
49	2021	1.7	320.2
49	2390	1.8	320.2
49	2649	1.9	320.2
49	3241	2	320.2
49	3385	2.1	320.2
49	3533	2.2	320.2
49	3903	2.3	320.2
49	4384	2.4	320.2
49	4753	2.5	320.2
49	5010	2.6	320.2
49	5663	2.7	320.2
49	5827	2.8	320.2
49	6237	2.9	320.2
49	7181	3	323.4
49	7929	3.1	323.4
49	8615	3.2	323.4
49	8668	3.3	323.4
49	8880	3.4	323.4
49	10197	3.5	323.4
49	11200	3.6	323.4
50	1621	1.5	329.8
50	1874	1.6	329.8
50	2021	1.7	329.8
50	2390	1.8	329.8
50	2649	1.9	329.8
50	3241	2	329.8
50	3385	2.1	329.8
50	3533	2.2	329.8
50	3903	2.3	329.8
50	4384	2.4	329.8
50	4753	2.5	329.8
50	5010	2.6	329.8
50	5663	2.7	329.8
50	5827	2.8	329.8
50	6237	2.9	326.6
50	7181	3	326.6
50	7929	3.1	326.6
50	8615	3.2	326.6
50	8668	3.3	326.6
50	8880	3.4	326.6
50	10197	3.5	326.6
50	11200	3.6	326.6
51	1621	1.5	419.9
51	1874	1.6	419.87070716862
51	2021	1.7	419.81346565333
51	2390	1.8	419.7289840794
51	2649	1.9	419.61591873651
51	3241	2	419.47947491464
51	3385	2.1	419.32075994889
51	3533	2.2	419.13973986339
51	3903	2.3	418.93430547667
51	4384	2.4	418.70998879324
51	4753	2.5	418.45863782593
51	5010	2.6	418.19022316708
51	5663	2.7	417.89881809964
51	5827	2.8	417.58363549411
51	6237	2.9	417.25331285968
51	7181	3	416.90667074992
51	7929	3.1	416.53155869766
51	8615	3.2	416.13394766007
51	8668	3.3	415.71419617323
51	8880	3.4	415.27709056162
51	10197	3.5	414.81613902346
51	11200	3.6	414.32941086751
52	1874	1.6	0.29938349771197
52	2021	1.7	0.5928511221851
52	2390	1.8	0.88801420230885
52	2649	1.9	1.147335754355
52	3241	2	1.39181884615
52	3385	2.1	1.6656111763398
52	3533	2.2	1.960556734154
52	3903	2.3	2.2085222931322
52	4384	2.4	2.4112271815405
52	4753	2.5	2.6585191620844
52	5010	2.6	2.9571672743001
52	5663	2.7	3.2400126220124
52	5827	2.8	3.4472658043309
52	6237	2.9	3.7378076293437
52	7181	3	3.9150012297487
52	7929	3.1	4.1351184497402
52	8615	3.2	4.3504420280853
52	8668	3.3	4.528962166228
52	8880	3.4	4.7233190280083
52	10197	3.5	5.0231947519398
52	11200	3.6	5.3153873751453
53	1874	1.6	0.28726642337395
53	2021	1.7	0.56284621380776
53	2390	1.8	0.82970429173775
53	2649	1.9	1.0917929967011
53	3241	2	1.3407737817153
53	3385	2.1	1.571740410602
53	3533	2.2	1.8490936217605
53	3903	2.3	2.1350601979999
53	4384	2.4	2.3473604461295
53	4753	2.5	2.6244147740754
53	5010	2.6	2.9158788015442
53	5663	2.7	3.1629572395776
53	5827	2.8	3.4015069006901
53	6237	2.9	3.6263422631384
53	7181	3	3.8347414219827
53	7929	3.1	4.1122760808519
53	8615	3.2	4.408736256145
53	8668	3.3	4.6427027222892
53	8880	3.4	4.9161501935176
53	10197	3.5	5.1787775452207
53	11200	3.6	5.3326317955465
54	1874	1.6	0.29055834136438
54	2021	1.7	0.56286795651774
54	2390	1.8	0.84973952596434
54	2649	1.9	1.1228374573149
54	3241	2	1.3985834085503
54	3385	2.1	1.619327744286
54	3533	2.2	1.905821897161
54	3903	2.3	2.1832006722524
54	4384	2.4	2.422734516098
54	4753	2.5	2.6019222883646
54	5010	2.6	2.7740858317139
54	5663	2.7	3.0661199290324
54	5827	2.8	3.2981706735581
54	6237	2.9	3.510513462978
54	7181	3	3.7392637363887
54	7929	3.1	4.0032222867264
54	8615	3.2	4.1602036569636
54	8668	3.3	4.3633320931713
54	8880	3.4	4.6606535201213
54	10197	3.5	4.811234646793
54	11200	3.6	5.0009554664041
55	1874	1.6	0.29185360267293
55	2021	1.7	0.56990793621423
55	2390	1.8	0.84606088393815
55	2649	1.9	1.0944224900543
55	3241	2	1.3786802466966
55	3385	2.1	1.6634141950936
55	3533	2.2	1.954652821332
55	3903	2.3	2.2446813649777
55	4384	2.4	2.4871881540466
55	4753	2.5	2.7242611733623
55	5010	2.6	2.90825349741
55	5663	2.7	3.0738250361414
55	5827	2.8	3.2715078383925
55	6237	2.9	3.4916486014737
55	7181	3	3.6623274031918
55	7929	3.1	3.8222519796816
55	8615	3.2	4.081353535504
55	8668	3.3	4.3097037687557
55	8880	3.4	4.487878459786
55	10197	3.5	4.7158818840756
55	11200	3.6	4.9569641651012
56	1874	1.6	0.28997226430918
56	2021	1.7	0.5692355061891
56	2390	1.8	0.82936159401123
56	2649	1.9	1.082270653229
56	3241	2	1.3533272821671
56	3385	2.1	1.5870306857066
56	3533	2.2	1.8556814587158
56	3903	2.3	2.1363850126071
56	4384	2.4	2.4019060674299
56	4753	2.5	2.6397176395205
56	5010	2.6	2.9123367759554
56	5663	2.7	3.1078050526014
56	5827	2.8	3.3602384826207
56	6237	2.9	3.5291794884522
56	7181	3	3.757004188005
56	7929	3.1	3.9668369362984
56	8615	3.2	4.1606260495531
56	8668	3.3	4.4575383747384
56	8880	3.4	4.6120518976861
56	10197	3.5	4.7871855022308
56	11200	3.6	5.0553346354553
57	1874	1.6	0.29292831380619
57	2021	1.7	0.57241515291982
57	2390	1.8	0.84481573929969
57	2649	1.9	1.130653428876
57	3241	2	1.364438218742
57	3385	2.1	1.5871496574385
57	3533	2.2	1.8102008550323
57	3903	2.3	2.0543438671541
57	4384	2.4	2.2431668342931
57	4753	2.5	2.5135096731292
57	5010	2.6	2.6841465885405
57	5663	2.7	2.9140506743636
57	5827	2.8	3.1518260553196
57	6237	2.9	3.3032263443056
57	7181	3	3.4664210976167
57	7929	3.1	3.7511205225201
57	8615	3.2	3.9761103759469
57	8668	3.3	4.1975148684411
57	8880	3.4	4.3710561160064
57	10197	3.5	4.6095153816809
57	11200	3.6	4.8672815594422
58	2021	1.7	2.9346762447313
58	2390	1.8	2.9516308012375
58	2649	1.9	2.593215520462
58	3241	2	2.4448309179493
58	3385	2.1	2.7379233018987
58	3533	2.2	2.9494555781417
58	3903	2.3	2.4796555897822
58	4384	2.4	2.0270488840832
58	4753	2.5	2.4729198054387
58	5010	2.6	2.9864811221569
58	5663	2.7	2.8284534771228
58	5827	2.8	2.0725318231853
58	6237	2.9	2.9054182501277
58	7181	3	1.7719360040501
58	7929	3.1	2.2011721999152
58	8615	3.2	2.1532357834512
58	8668	3.3	1.7852013814263
58	8880	3.4	1.943568617804
58	10197	3.5	2.9987572393147
58	11200	3.6	2.9219262320548
59	2021	1.7	1.5579164784892
59	2390	1.8	1.7845852016403
59	2649	1.9	1.8825316206737
59	3241	2	1.9974559918878
59	3385	2.1	2.2898120231558
59	3533	2.2	2.5988739938436
59	3903	2.3	2.5373405318655
59	4384	2.4	2.4055424144682
59	4753	2.5	2.8243901640398
59	5010	2.6	3.3834400042751
59	5663	2.7	3.4780184737296
59	5827	2.8	3.0019214100351
59	6237	2.9	3.9123705952656
59	7181	3	2.976251683562
59	7929	3.1	3.5096179430778
59	8615	3.2	3.5850457280575
59	8668	3.3	3.2855701380941
59	8880	3.4	3.559990236685
59	10197	3.5	4.9942930564445
59	11200	3.6	5.1232994357535
60	2021	1.7	2.7557979043381
60	2390	1.8	2.6685807792999
60	2649	1.9	2.6208870496335
60	3241	2	2.4898078501421
60	3385	2.1	2.3096662888673
60	3533	2.2	2.773532111585
60	3903	2.3	2.859665762394
60	4384	2.4	2.1230024812958
60	4753	2.5	2.7705432794585
60	5010	2.6	2.9146402746886
60	5663	2.7	2.4707843803335
60	5827	2.8	2.3854966111248
60	6237	2.9	2.2483536244836
60	7181	3	2.0839915884426
60	7929	3.1	2.7753465886926
60	8615	3.2	2.9646017529303
60	8668	3.3	2.3396646614419
60	8880	3.4	2.7344747122843
60	10197	3.5	2.6262735170312
60	11200	3.6	1.5385425032582
61	2021	1.7	1.5109809635582
61	2390	1.8	1.6836837346693
61	2649	1.9	1.8524016551843
61	3241	2	1.9794244356614
61	3385	2.1	2.0610566417395
61	3533	2.2	2.4357577749455
61	3903	2.3	2.6853340040195
61	4384	2.4	2.4254434586538
61	4753	2.5	2.9905957767275
61	5010	2.6	3.3011480415815
61	5663	2.7	3.1489156854043
61	5827	2.8	3.2332666296055
61	6237	2.9	3.2542853318643
61	7181	3	3.2261653421303
61	7929	3.1	4.0653313301622
61	8615	3.2	4.4804990890404
61	8668	3.3	3.9610390854394
61	8880	3.4	4.5979154879996
61	10197	3.5	4.6504686527711
61	11200	3.6	3.3585346884373
62	2021	1.7	2.7230961515336
62	2390	1.8	2.8687156944661
62	2649	1.9	2.7309793135057
62	3241	2	2.7574595123541
62	3385	2.1	2.2074433573564
62	3533	2.2	2.8649415287504
62	3903	2.3	2.7737877509142
62	4384	2.4	2.3953384384554
62	4753	2.5	1.7918777226666
62	5010	2.6	1.7216354334926
62	5663	2.7	2.9203409731854
62	5827	2.8	2.3205074452562
62	6237	2.9	2.1234278941993
62	7181	3	2.287502734107
62	7929	3.1	2.639585503377
62	8615	3.2	1.5698137023719
62	8668	3.3	2.0312843620777
62	8880	3.4	2.9732142694993
62	10197	3.5	1.5058112667175
62	11200	3.6	1.897208196111
63	2021	1.7	1.5065604234226
63	2390	1.8	1.7385244433296
63	2649	1.9	1.9033099078052
63	3241	2	2.1071458293967
63	3385	2.1	2.0499810327131
63	3533	2.2	2.5184527777153
63	3903	2.3	2.6757110918191
63	4384	2.4	2.6267742509566
63	4753	2.5	2.3607646932437
63	5010	2.6	2.3968014518391
63	5663	2.7	3.4185143083765
63	5827	2.8	3.1168945897186
63	6237	2.9	3.0798353663322
63	7181	3	3.3566237240397
63	7929	3.1	3.8556522422406
63	8615	3.2	2.8912491504875
63	8668	3.3	3.4641847885714
63	8880	3.4	4.6837484058911
63	10197	3.5	3.0983817607229
63	11200	3.6	3.6493728143519
64	2021	1.7	2.780543335413
64	2390	1.8	2.7615294772393
64	2649	1.9	2.4836160611617
64	3241	2	2.8425775664231
64	3385	2.1	2.8473394839699
64	3533	2.2	2.9123862623834
64	3903	2.3	2.9002854364572
64	4384	2.4	2.4250678906892
64	4753	2.5	2.3707301931566
64	5010	2.6	1.8399232404772
64	5663	2.7	1.6557153873146
64	5827	2.8	1.9768280225107
64	6237	2.9	2.2014076308114
64	7181	3	1.7067880171817
64	7929	3.1	1.5992457648972
64	8615	3.2	2.5910155582242
64	8668	3.3	2.2835023325169
64	8880	3.4	1.7817469103029
64	10197	3.5	2.2800342428964
64	11200	3.6	2.4108228102559
65	2021	1.7	1.519411003512
65	2390	1.8	1.7139476431352
65	2649	1.9	1.8179842273737
65	3241	2	2.1212299528442
65	3385	2.1	2.3321177665522
65	3533	2.2	2.5769240147797
65	3903	2.3	2.7882904558162
65	4384	2.4	2.6850189300786
65	4753	2.5	2.7997817702075
65	5010	2.6	2.5421485995829
65	5663	2.7	2.4875046924427
65	5827	2.8	2.8296493257387
65	6237	2.9	3.1348261802218
65	7181	3	2.7976552447754
65	7929	3.1	2.7727096111282
65	8615	3.2	3.8617038388361
65	8668	3.3	3.6970283989412
65	8880	3.4	3.2619449617958
65	10197	3.5	3.9385044471927
65	11200	3.6	4.2404130093968
66	2021	1.7	2.7926324187992
66	2390	1.8	2.6012608782213
66	2649	1.9	2.5290905921774
66	3241	2	2.7105662893816
66	3385	2.1	2.3370340353949
66	3533	2.2	2.6865077300914
66	3903	2.3	2.8070355389135
66	4384	2.4	2.6552105482273
66	4753	2.5	2.3781157209061
66	5010	2.6	2.7261913643491
66	5663	2.7	1.9546827664599
66	5827	2.8	2.524334300193
66	6237	2.9	1.6894100583158
66	7181	3	2.2782469955273
66	7929	3.1	2.0983274829341
66	8615	3.2	1.9378911325475
66	8668	3.3	2.9691232518526
66	8880	3.4	1.5451352294767
66	10197	3.5	1.7513360454468
66	11200	3.6	2.6814913322451
67	2021	1.7	1.5205863523686
67	2390	1.8	1.6699910968319
67	2649	1.9	1.8219815297057
67	3241	2	2.0595697570725
67	3385	2.1	2.0807832965958
67	3533	2.2	2.4015663100314
67	3903	2.3	2.6592149634059
67	4384	2.4	2.7641415240038
67	4753	2.5	2.7519296995122
67	5010	2.6	3.1662135864824
67	5663	2.7	2.7267137020558
67	5827	2.8	3.3198528911385
67	6237	2.9	2.7212060027395
67	7181	3	3.3589481968504
67	7929	3.1	3.3131438609886
67	8615	3.2	3.2605065977935
67	8668	3.3	4.5228440038442
67	8880	3.4	3.0589728064278
67	10197	3.5	3.3716054853186
67	11200	3.6	4.6327608202772
68	2021	1.7	2.7948683911363
68	2390	1.8	2.7240058637988
68	2649	1.9	2.8583768957631
68	3241	2	2.33784789866
68	3385	2.1	2.2271143869652
68	3533	2.2	2.2305119759377
68	3903	2.3	2.4414301212182
68	4384	2.4	1.8882296713895
68	4753	2.5	2.7034283883616
68	5010	2.6	1.7063691541132
68	5663	2.7	2.2990408582303
68	5827	2.8	2.3777538095601
68	6237	2.9	1.5140028898604
68	7181	3	1.6319475331111
68	7929	3.1	2.8469942490337
68	8615	3.2	2.2498985342681
68	8668	3.3	2.2140449249419
68	8880	3.4	1.735412475653
68	10197	3.5	2.3845926567446
68	11200	3.6	2.5776617776137
69	2021	1.7	1.5231884625042
69	2390	1.8	1.7054188213823
69	2649	1.9	1.9435481527939
69	3241	2	1.944808771539
69	3385	2.1	2.0388115240235
69	3533	2.2	2.1709516537876
69	3903	2.3	2.4186468898184
69	4384	2.4	2.2400360794194
69	4753	2.5	2.8703361640167
69	5010	2.6	2.3450846150168
69	5663	2.7	2.8674444368935
69	5827	2.8	3.07105470083
69	6237	2.9	2.4779409150532
69	7181	3	2.6444091741212
69	7929	3.1	3.8695698365162
69	8615	3.2	3.4635631357876
69	8668	3.3	3.559050386397
69	8880	3.4	3.156700735384
69	10197	3.5	3.9904385121947
69	11200	3.6	4.3790852440179
70	5010	2.6	320.2
70	5663	2.7	320.2
70	5827	2.8	320.2
70	6237	2.9	320.2
70	7181	3	320.2
70	7929	3.1	320.2
70	8615	3.2	320.2
70	8668	3.3	320.2
70	8880	3.4	320.2
70	10197	3.5	320.2
70	11200	3.6	320.2
71	5010	2.6	30.1
71	5663	2.7	30.128796354202
71	5827	2.8	30.185109058373
71	6237	2.9	30.270432885639
71	7181	3	30.380208670713
71	7929	3.1	30.519572687921
71	8615	3.2	30.686482299703
71	8668	3.3	30.880318505487
71	8880	3.4	31.09388954771
71	10197	3.5	31.328912387835
71	11200	3.6	31.58736758877
72	5010	2.6	109.5
72	5663	2.7	109.47087325469
72	5827	2.8	109.41237961947
72	6237	2.9	109.32586596599
72	7181	3	109.21207793858
72	7929	3.1	109.06901343208
72	8615	3.2	108.90397295665
72	8668	3.3	108.71050242875
72	8880	3.4	108.496804202
72	10197	3.5	108.25374154089
72	11200	3.6	107.99422660474
73	5010	2.6	320.2
73	5663	2.7	320.2
73	5827	2.8	320.2
73	6237	2.9	320.2
73	7181	3	320.2
73	7929	3.1	320.2
73	8615	3.2	320.2
73	8668	3.3	320.2
73	8880	3.4	320.2
73	10197	3.5	320.2
73	11200	3.6	320.2
74	5663	2.7	0.28796354202088
74	5827	2.8	0.56312704170702
74	6237	2.9	0.85323827266326
74	7181	3	1.0977578507432
74	7929	3.1	1.3936401720708
74	8615	3.2	1.6690961178236
74	8668	3.3	1.9383620578368
74	8880	3.4	2.1357104222354
74	10197	3.5	2.3502284012445
74	11200	3.6	2.5845520093593
75	5663	2.7	0.29126745312125
75	5827	2.8	0.5849363522169
75	6237	2.9	0.86513653472413
75	7181	3	1.137880274147
75	7929	3.1	1.4306450649532
75	8615	3.2	1.6504047542919
75	8668	3.3	1.934705279043
75	8880	3.4	2.1369822675253
75	10197	3.5	2.4306266110808
75	11200	3.6	2.5951493615089
76	5827	2.8	2.7516349968614
76	6237	2.9	2.9011123095624
76	7181	3	2.4451957807994
76	7929	3.1	2.958823213276
76	8615	3.2	2.7545594575279
76	8668	3.3	2.6926594001324
76	8880	3.4	1.973483643986
76	10197	3.5	2.1451797900904
76	11200	3.6	2.3432360811482
77	5827	2.8	1.5106160832223
77	6237	2.9	1.7477745507806
77	7181	3	1.8099781651282
77	7929	3.1	2.1712511596264
77	8615	3.2	2.2989742534478
77	8668	3.3	2.4620424369937
77	8880	3.4	2.2296908726157
77	10197	3.5	2.4396149041279
77	11200	3.6	2.6958216115852
78	5827	2.8	2.9366889909565
78	6237	2.9	2.8020018250722
78	7181	3	2.7274373942287
78	7929	3.1	2.9276479080625
78	8615	3.2	2.1975968933861
78	8668	3.3	2.8430052475111
78	8880	3.4	2.0227698848238
78	10197	3.5	2.9364434355545
78	11200	3.6	1.6452275042808
79	5827	2.8	1.5522198691747
79	6237	2.9	1.736005513679
79	7181	3	1.9129702733412
79	7929	3.1	2.1886952512482
79	8615	3.2	2.0641195792548
79	8668	3.3	2.5295900886659
79	8880	3.4	2.2557417781675
79	10197	3.5	2.948692800458
79	11200	3.6	2.2657808627916
80	6237	2.9	329.8
80	7181	3	329.8
80	7929	3.1	329.8
80	8615	3.2	329.8
80	8668	3.3	329.8
80	8880	3.4	329.8
80	10197	3.5	329.8
80	11200	3.6	329.8
81	6237	2.9	419.9
81	7181	3	419.87123871795
81	7929	3.1	419.81346330475
81	8615	3.2	419.72984081021
81	8668	3.3	419.61762516976
81	8880	3.4	419.47987542789
81	10197	3.5	419.31501618669
81	11200	3.6	419.12261480053
82	7181	3	30.1
82	7929	3.1	30.129202726318
82	8615	3.2	30.185793604391
82	8668	3.3	30.270527432132
82	8880	3.4	30.381432226355
82	10197	3.5	30.517966399797
82	11200	3.6	30.683819209002
83	7181	3	129.8
83	7929	3.1	129.8
83	8615	3.2	129.8
83	8668	3.3	129.8
83	8880	3.4	129.8
83	10197	3.5	129.8
83	11200	3.6	129.8
84	7181	3	419.9
84	7929	3.1	419.87076985673
84	8615	3.2	419.81174559882
84	8668	3.3	419.72378594118
84	8880	3.4	419.6099842587
84	10197	3.5	419.4664474897
84	11200	3.6	419.29564112162
85	7181	3	320.2
85	7929	3.1	320.2
85	8615	3.2	320.2
85	8668	3.3	320.2
85	8880	3.4	320.2
85	10197	3.5	320.2
85	11200	3.6	320.2
86	7181	3	0.28761282050866
86	7929	3.1	0.57775413201405
86	8615	3.2	0.836224945376
86	8668	3.3	1.1221564044919
86	8880	3.4	1.3774974187455
86	10197	3.5	1.6485924120098
86	11200	3.6	1.9240138616007
87	7929	3.1	129.8
87	8615	3.2	129.8
87	8668	3.3	129.8
87	8880	3.4	129.8
87	10197	3.5	129.8
87	11200	3.6	129.8
88	7929	3.1	419.9
88	8615	3.2	419.87134787859
88	8668	3.3	419.81314097545
88	8880	3.4	419.72928095958
88	10197	3.5	419.61652348086
88	11200	3.6	419.47731170477
89	7929	3.1	30.1
89	8615	3.2	30.129616127679
89	8668	3.3	30.189157432208
89	8880	3.4	30.277419764885
89	10197	3.5	30.395276166301
89	11200	3.6	30.538072450427
90	7929	3.1	329.8
90	8615	3.2	329.8
90	8668	3.3	329.8
90	8880	3.4	329.8
90	10197	3.5	329.8
90	11200	3.6	329.8
91	7929	3.1	120.2
91	8615	3.2	120.2
91	8668	3.3	120.2
91	8880	3.4	120.2
91	10197	3.5	120.2
91	11200	3.6	120.2
92	7929	3.1	30.1
92	8615	3.2	30.129319232506
92	8668	3.3	30.187823371479
92	8880	3.4	30.273807620796
92	10197	3.5	30.384754651615
92	11200	3.6	30.525664527747
93	7929	3.1	2.901413115054
93	8615	3.2	2.5847081336194
93	8668	3.3	2.8593145911595
93	8880	3.4	2.5534101425357
93	10197	3.5	2.7109499326433
93	11200	3.6	2.7542144959085
94	7929	3.1	1.541877798219
94	8615	3.2	1.6712902875079
94	8668	3.3	1.9375355233284
94	8880	3.4	2.0243650625744
94	10197	3.5	2.2670316229849
94	11200	3.6	2.4805667805119
95	7929	3.1	0.29202726318268
95	8615	3.2	0.56590878072609
95	8668	3.3	0.84733827741493
95	8880	3.4	1.1090479422309
95	10197	3.5	1.3653417344105
95	11200	3.6	1.6585280920537
96	7929	3.1	0.2923014327453
96	8615	3.2	0.59024257901188
96	8668	3.3	0.87959657647596
96	8880	3.4	1.1380168248083
96	10197	3.5	1.4353676899415
96	11200	3.6	1.7080636807871
97	8615	3.2	2.7388151754341
97	8668	3.3	2.8142949668884
97	8880	3.4	2.6170966481593
97	10197	3.5	2.5629379217968
97	11200	3.6	2.9318635764318
98	8615	3.2	1.5108467948935
98	8668	3.3	1.7256348230902
98	8880	3.4	1.863125530337
98	10197	3.5	2.0194271610418
98	11200	3.6	2.3623101633981
99	8615	3.2	2.9794114626658
99	8668	3.3	2.8935399746408
99	8880	3.4	2.5842024833236
99	10197	3.5	2.9735086513323
99	11200	3.6	2.7269599084551
100	8615	3.2	1.5623089949695
100	8668	3.3	1.7658752391257
100	8880	3.4	1.873782765013
100	10197	3.5	2.2081221824987
100	11200	3.6	2.3153922425254
101	8615	3.2	0.28652121413732
101	8668	3.3	0.58206903135714
101	8880	3.4	0.83860015868824
101	10197	3.5	1.1275747872335
101	11200	3.6	1.3921177609076
102	8615	3.2	0.29616127679357
102	8668	3.3	0.59541304528302
102	8880	3.4	0.88262332677612
102	10197	3.5	1.1785640141549
102	11200	3.6	1.4279628412624
103	8615	3.2	0.29319232506095
103	8668	3.3	0.58504138972459
103	8880	3.4	0.8598424931725
103	10197	3.5	1.1094703081955
103	11200	3.6	1.4090987613141
104	8668	3.3	2.9554781721982
104	8880	3.4	2.565311273311
104	10197	3.5	2.8897462854524
104	11200	3.6	2.6454297367409
105	8668	3.3	1.552687676253
105	8880	3.4	1.66896472796
105	10197	3.5	1.9498022623291
105	11200	3.6	2.064947673899
106	8668	3.3	2.9925176848945
106	8880	3.4	2.8721028149309
106	10197	3.5	2.9594068737877
106	11200	3.6	2.4939882710748
107	8668	3.3	1.5681521853416
107	8880	3.4	1.7635726384552
107	10197	3.5	2.0075771132174
107	11200	3.6	2.037432650793
108	8668	3.3	2.9184906466363
108	8880	3.4	2.7480110344791
108	10197	3.5	2.49627815023
108	11200	3.6	2.9962845311857
109	8668	3.3	1.5497334105053
109	8880	3.4	1.7209859825889
109	10197	3.5	1.8311077108763
109	11200	3.6	2.1957500443858
vector 110 tlEmergency.node[22].veinsmobility posx ETV
vector 111 tlEmergency.node[22].veinsmobility posy ETV
vector 112 tlEmergency.node[23].veinsmobility posx ETV
vector 113 tlEmergency.node[23].veinsmobility posy ETV
vector 114 tlEmergency.node[24].veinsmobility posx ETV
vector 115 tlEmergency.node[24].veinsmobility posy ETV
vector 116 tlEmergency.node[25].veinsmobility posx ETV
vector 117 tlEmergency.node[25].veinsmobility posy ETV
vector 118 tlEmergency.node[26].veinsmobility posx ETV
vector 119 tlEmergency.node[26].veinsmobility posy ETV
vector 120 tlEmergency.node[22].veinsmobility speed ETV
vector 121 tlEmergency.node[23].veinsmobility speed ETV
vector 122 tlEmergency.node[22].veinsmobility acceleration ETV
vector 123 tlEmergency.node[22].veinsmobility co2emission ETV
vector 124 tlEmergency.node[23].veinsmobility acceleration ETV
vector 125 tlEmergency.node[23].veinsmobility co2emission ETV
vector 126 tlEmergency.node[24].veinsmobility speed ETV
vector 127 tlEmergency.node[25].veinsmobility speed ETV
vector 128 tlEmergency.node[26].veinsmobility speed ETV
vector 129 tlEmergency.node[24].veinsmobility acceleration ETV
vector 130 tlEmergency.node[24].veinsmobility co2emission ETV
vector 131 tlEmergency.node[25].veinsmobility acceleration ETV
vector 132 tlEmergency.node[25].veinsmobility co2emission ETV
vector 133 tlEmergency.node[26].veinsmobility acceleration ETV
vector 134 tlEmergency.node[26].veinsmobility co2emission ETV
vector 135 tlEmergency.node[27].veinsmobility posx ETV
vector 136 tlEmergency.node[27].veinsmobility posy ETV
vector 137 tlEmergency.node[27].veinsmobility speed ETV
vector 138 tlEmergency.node[27].veinsmobility acceleration ETV
vector 139 tlEmergency.node[27].veinsmobility co2emission ETV
vector 140 tlEmergency.node[28].veinsmobility posx ETV
vector 141 tlEmergency.node[28].veinsmobility posy ETV
vector 142 tlEmergency.node[29].veinsmobility posx ETV
vector 143 tlEmergency.node[29].veinsmobility posy ETV
vector 144 tlEmergency.node[28].veinsmobility speed ETV
vector 145 tlEmergency.node[28].veinsmobility acceleration ETV
vector 146 tlEmergency.node[28].veinsmobility co2emission ETV
vector 147 tlEmergency.node[29].veinsmobility speed ETV
vector 148 tlEmergency.node[29].veinsmobility acceleration ETV
vector 149 tlEmergency.node[29].veinsmobility co2emission ETV
vector 150 tlEmergency.node[30].veinsmobility posx ETV
vector 151 tlEmergency.node[30].veinsmobility posy ETV
vector 152 tlEmergency.node[30].veinsmobility speed ETV
vector 153 tlEmergency.node[30].veinsmobility acceleration ETV
vector 154 tlEmergency.node[30].veinsmobility co2emission ETV
vector 155 tlEmergency.node[31].veinsmobility posx ETV
vector 156 tlEmergency.node[31].veinsmobility posy ETV
vector 157 tlEmergency.node[31].veinsmobility speed ETV
vector 158 tlEmergency.node[31].veinsmobility acceleration ETV
vector 159 tlEmergency.node[31].veinsmobility co2emission ETV
vector 160 tlEmergency.node[32].veinsmobility posx ETV
vector 161 tlEmergency.node[32].veinsmobility posy ETV
vector 162 tlEmergency.node[33].veinsmobility posx ETV
vector 163 tlEmergency.node[33].veinsmobility posy ETV
vector 164 tlEmergency.node[34].veinsmobility posx ETV
vector 165 tlEmergency.node[34].veinsmobility posy ETV
vector 166 tlEmergency.node[32].veinsmobility speed ETV
vector 167 tlEmergency.node[33].veinsmobility speed ETV
vector 168 tlEmergency.node[34].veinsmobility speed ETV
vector 169 tlEmergency.node[32].veinsmobility acceleration ETV
vector 170 tlEmergency.node[32].veinsmobility co2emission ETV
vector 171 tlEmergency.node[33].veinsmobility acceleration ETV
vector 172 tlEmergency.node[33].veinsmobility co2emission ETV
vector 173 tlEmergency.node[34].veinsmobility acceleration ETV
vector 174 tlEmergency.node[34].veinsmobility co2emission ETV
0	12047	3.7	126.6
0	13054	3.8	126.6
0	13425	3.9	126.6
0	13955	4	126.6
0	14643	4.1	126.6
0	15808	4.2	126.6
0	16376	4.3	126.6
0	16814	4.4	126.6
0	18949	4.5	126.6
0	19579	4.6	126.6
0	20227	4.7	126.6
0	21266	4.8	126.6
0	21916	4.9	126.6
0	22765	5	126.6
0	24238	5.1	126.6
0	26368	5.2	126.6
0	27058	5.3	126.6
0	27748	5.4	126.6
0	30093	5.5	126.6
0	31197	5.6	126.6
0	32331	5.7	126.6
0	33465	5.8	126.6
0	34600	5.9	126.6
0	36588	6	126.6
0	37723	6.1	126.6
0	39328	6.2	126.6
0	41372	6.3	126.6
0	42759	6.4	126.6
0	44020	6.5	126.6
0	45754	6.6	126.6
1	12047	3.7	403.77265526676
1	13054	3.8	402.88703411845
1	13425	3.9	401.9796555299
1	13955	4	401.05502304948
1	14643	4.1	400.10437032883
1	15808	4.2	399.13033063301
1	16376	4.3	398.13950421793
1	16814	4.4	397.12098956632
1	18949	4.5	396.07300999417
1	19579	4.6	395.00582010049
1	20227	4.7	393.91707545631
1	21266	4.8	392.81027140498
1	21916	4.9	391.68832022051
1	22765	5	390.54169296148
1	24238	5.1	389.37988962757
1	26368	5.2	388.1957963172
1	27058	5.3	386.99567280258
1	27748	5.4	385.78033261797
1	30093	5.5	384.54207538278
1	31197	5.6	383.28584682784
1	32331	5.7	382.00840432392
1	33465	5.8	380.71563190483
1	34600	5.9	379.39533955841
1	36588	6	378.05554962717
1	37723	6.1	376.69704334244
1	39328	6.2	375.3096915461
1	41372	6.3	373.89884544716
1	42759	6.4	372.46523262838
1	44020	6.5	371.01510367399
1	45754	6.6	369.58897651412
2	12047	3.7	46.054665734181
2	13054	3.8	46.91010143522
2	13425	3.9	47.79419158545
2	13955	4	48.705345166814
2	14643	4.1	49.631585842865
2	15808	4.2	50.584298811407
2	16376	4.3	51.563426984451
2	16814	4.4	52.557872986185
2	18949	4.5	53.571993822133
2	19579	4.6	54.611261355271
2	20227	4.7	55.676232358555
2	21266	4.8	56.756768695797
2	21916	4.9	57.866905667564
2	22765	5	59.001233714332
2	24238	5.1	60.160056951197
2	26368	5.2	61.346527952754
2	27058	5.3	62.557206673038
2	27748	5.4	63.783007747059
2	30093	5.5	65.00072778273
2	31197	5.6	66.223409160486
2	32331	5.7	67.446388293317
2	33465	5.8	68.667023263151
2	34600	5.9	69.889665475693
2	36588	6	71.104945289465
2	37723	6.1	72.31783652823
2	39328	6.2	73.536719390625
2	41372	6.3	74.758416743322
2	42759	6.4	75.975353300165
2	44020	6.5	77.195017132922
2	45754	6.6	78.413882027961
3	12047	3.7	326.6
3	13054	3.8	326.6
3	13425	3.9	326.6
3	13955	4	326.6
3	14643	4.1	326.6
3	15808	4.2	326.6
3	16376	4.3	326.6
3	16814	4.4	326.6
3	18949	4.5	326.6
3	19579	4.6	326.6
3	20227	4.7	326.6
3	21266	4.8	326.6
3	21916	4.9	326.6
3	22765	5	326.6
3	24238	5.1	326.6
3	26368	5.2	326.6
3	27058	5.3	326.6
3	27748	5.4	326.6
3	30093	5.5	326.6
3	31197	5.6	326.6
3	32331	5.7	326.6
3	33465	5.8	326.6
3	34600	5.9	326.6
3	36588	6	326.6
3	37723	6.1	326.6
3	39328	6.2	326.6
3	41372	6.3	326.6
3	42759	6.4	326.6
3	44020	6.5	326.6
3	45754	6.6	326.6
4	12047	3.7	46.384318396547
4	13054	3.8	47.275872598148
4	13425	3.9	48.187022265963
4	13955	4	49.12075715965
4	14643	4.1	50.076232985751
4	15808	4.2	51.055931049515
4	16376	4.3	52.062649032004
4	16814	4.4	53.088431804172
4	18949	4.5	54.129772847832
4	19579	4.6	55.187369751276
4	20227	4.7	56.243126426493
4	21266	4.8	57.300824490358
4	21916	4.9	58.356859667192
4	22765	5	59.416543160507
4	24238	5.1	60.471343282646
4	26368	5.2	61.527486391417
4	27058	5.3	62.582860211489
4	27748	5.4	63.640905558005
4	30093	5.5	64.688776047749
4	31197	5.6	65.744996757726
4	32331	5.7	66.795776687599
4	33465	5.8	67.856066647277
4	34600	5.9	68.913497663864
4	36588	6	69.968171041956
4	37723	6.1	71.026495138836
4	39328	6.2	72.077682915384
4	41372	6.3	73.134028015382
4	42759	6.4	74.181882373255
4	44020	6.5	75.234822863784
4	45754	6.6	76.286429891224
5	12047	3.7	126.6
5	13054	3.8	126.6
5	13425	3.9	126.6
5	13955	4	126.6
5	14643	4.1	126.6
5	15808	4.2	126.6
5	16376	4.3	126.6
5	16814	4.4	126.6
5	18949	4.5	126.6
5	19579	4.6	126.6
5	20227	4.7	126.6
5	21266	4.8	126.6
5	21916	4.9	126.6
5	22765	5	126.6
5	24238	5.1	126.6
5	26368	5.2	126.6
5	27058	5.3	126.6
5	27748	5.4	126.6
5	30093	5.5	126.6
5	31197	5.6	126.6
5	32331	5.7	126.6
5	33465	5.8	126.6
5	34600	5.9	126.6
5	36588	6	126.6
5	37723	6.1	126.6
5	39328	6.2	126.6
5	41372	6.3	126.6
5	42759	6.4	126.6
5	44020	6.5	126.6
5	45754	6.6	126.6
6	12047	3.7	123.4
6	13054	3.8	123.4
6	13425	3.9	123.4
6	13955	4	123.4
6	14643	4.1	123.4
6	15808	4.2	123.4
6	16376	4.3	123.4
6	16814	4.4	123.4
6	18949	4.5	123.4
6	19579	4.6	123.4
6	20227	4.7	123.4
6	21266	4.8	123.4
6	21916	4.9	123.4
6	22765	5	123.4
6	24238	5.1	123.4
6	26368	5.2	123.4
6	27058	5.3	123.4
6	27748	5.4	123.4
6	30093	5.5	123.4
6	31197	5.6	123.4
6	32331	5.7	123.4
6	33465	5.8	123.4
6	34600	5.9	123.4
6	36588	6	123.4
6	37723	6.1	123.4
6	39328	6.2	123.4
6	41372	6.3	123.4
6	42759	6.4	123.4
6	44020	6.5	123.4
6	45754	6.6	123.4
7	12047	3.7	46.05681816115
7	13054	3.8	46.909785249292
7	13425	3.9	47.79144539798
7	13955	4	48.702802270681
7	14643	4.1	49.631669845739
7	15808	4.2	50.578865069444
7	16376	4.3	51.54301011097
7	16814	4.4	52.522475877353
7	18949	4.5	53.519927982448
7	19579	4.6	54.535672149909
7	20227	4.7	55.570606827595
7	21266	4.8	56.633391205999
7	21916	4.9	57.714796350097
7	22765	5	58.819981565078
7	24238	5.1	59.95237179489
7	26368	5.2	61.107919769664
7	27058	5.3	62.291439471838
7	27748	5.4	63.495694641499
7	30093	5.5	64.726614990378
7	31197	5.6	65.973379118128
7	32331	5.7	67.243393996034
7	33465	5.8	68.53685339465
7	34600	5.9	69.858823587993
7	36588	6	71.200792280667
7	37723	6.1	72.570197329549
7	39328	6.2	73.967668483956
7	41372	6.3	75.386022178362
7	42759	6.4	76.833799491385
7	44020	6.5	78.29719256537
7	45754	6.6	79.781059756198
8	12047	3.7	320.2
8	13054	3.8	320.2
8	13425	3.9	320.2
8	13955	4	320.2
8	14643	4.1	320.2
8	15808	4.2	320.2
8	16376	4.3	320.2
8	16814	4.4	320.2
8	18949	4.5	320.2
8	19579	4.6	320.2
8	20227	4.7	320.2
8	21266	4.8	320.2
8	21916	4.9	320.2
8	22765	5	320.2
8	24238	5.1	320.2
8	26368	5.2	320.2
8	27058	5.3	320.2
8	27748	5.4	320.2
8	30093	5.5	320.2
8	31197	5.6	320.2
8	32331	5.7	320.2
8	33465	5.8	320.2
8	34600	5.9	320.2
8	36588	6	320.2
8	37723	6.1	320.2
8	39328	6.2	320.2
8	41372	6.3	320.2
8	42759	6.4	320.2
8	44020	6.5	320.2
8	45754	6.6	320.2
9	12047	3.7	46.136897348832
9	13054	3.8	47.020917974309
9	13425	3.9	47.930309347996
9	13955	4	48.869016692433
9	14643	4.1	49.835636118211
9	15808	4.2	50.826844611429
9	16376	4.3	51.83748614257
9	16814	4.4	52.874781459571
9	18949	4.5	53.939768197597
9	19579	4.6	55.024424043212
9	20227	4.7	56.129272546582
9	21266	4.8	57.261665078589
9	21916	4.9	58.422355283588
9	22765	5	59.600269126117
9	24238	5.1	60.793565722307
9	26368	5.2	62.003217258705
9	27058	5.3	63.231937775665
9	27748	5.4	64.478306824985
9	30093	5.5	65.749403857203
9	31197	5.6	67.044919938366
9	32331	5.7	68.359821942469
9	33465	5.8	69.690050050607
9	34600	5.9	71.038284089799
9	36588	6	72.394491400568
9	37723	6.1	73.755012645427
9	39328	6.2	75.119283774266
9	41372	6.3	76.483269452789
9	42759	6.4	77.848876802947
9	44020	6.5	79.20849101039
9	45754	6.6	80.575236597741
10	12047	3.7	93.856459626586
10	13054	3.8	93.010483412766
10	13425	3.9	92.145409568135
10	13955	4	91.252202019561
10	14643	4.1	90.342740597337
10	15808	4.2	89.417802883915
10	16376	4.3	88.466076825631
10	16814	4.4	87.493432448981
10	18949	4.5	86.504094260907
10	19579	4.6	85.484812432723
10	20227	4.7	84.435658521705
10	21266	4.8	83.370304678475
10	21916	4.9	82.277966722112
10	22765	5	81.170114062432
10	24238	5.1	80.040745702903
10	26368	5.2	78.882633147023
10	27058	5.3	77.699123862956
10	27748	5.4	76.495574940549
10	30093	5.5	75.263574838723
10	31197	5.6	74.004536807978
10	32331	5.7	72.723928103445
10	33465	5.8	71.417479754572
10	34600	5.9	70.08689549856
10	36588	6	68.73670195259
10	37723	6.1	67.369620799213
10	39328	6.2	65.982428266249
10	41372	6.3	64.568045186938
10	42759	6.4	63.127933869956
10	44020	6.5	61.670236798966
10	45754	6.6	60.211507364282
11	12047	3.7	320.2
11	13054	3.8	320.2
11	13425	3.9	320.2
11	13955	4	320.2
11	14643	4.1	320.2
11	15808	4.2	320.2
11	16376	4.3	320.2
11	16814	4.4	320.2
11	18949	4.5	320.2
11	19579	4.6	320.2
11	20227	4.7	320.2
11	21266	4.8	320.2
11	21916	4.9	320.2
11	22765	5	320.2
11	24238	5.1	320.2
11	26368	5.2	320.2
11	27058	5.3	320.2
11	27748	5.4	320.2
11	30093	5.5	320.2
11	31197	5.6	320.2
11	32331	5.7	320.2
11	33465	5.8	320.2
11	34600	5.9	320.2
11	36588	6	320.2
11	37723	6.1	320.2
11	39328	6.2	320.2
11	41372	6.3	320.2
11	42759	6.4	320.2
11	44020	6.5	320.2
11	45754	6.6	320.2
12	12047	3.7	403.53565317178
12	13054	3.8	402.64924214562
12	13425	3.9	401.74209334207
12	13955	4	400.81411933596
12	14643	4.1	399.85625132448
12	15808	4.2	398.86872924942
12	16376	4.3	397.85907879429
12	16814	4.4	396.82542625382
12	18949	4.5	395.76615588307
12	19579	4.6	394.68037708242
12	20227	4.7	393.57637592117
12	21266	4.8	392.44811168978
12	21916	4.9	391.29873367697
12	22765	5	390.13225477021
12	24238	5.1	388.93833372532
12	26368	5.2	387.7146116548
12	27058	5.3	386.47537406482
12	27748	5.4	385.21191772242
12	30093	5.5	383.91992646178
12	31197	5.6	382.61984486264
12	32331	5.7	381.31797845494
12	33465	5.8	380.02677939746
12	34600	5.9	378.73672222232
12	36588	6	377.43575878245
12	37723	6.1	376.13843913944
12	39328	6.2	374.84325766317
12	41372	6.3	373.55219495359
[...]
118	65477	7.8	404.31876728229
119	47016	6.7	323.4
119	48043	6.8	323.4
119	49300	6.9	323.4
119	50801	7	323.4
119	52772	7.1	323.4
119	54978	7.2	323.4
119	57190	7.3	323.4
119	58690	7.4	323.4
119	60663	7.5	323.4
119	61740	7.6	323.4
119	63608	7.7	323.4
119	65477	7.8	323.4
120	47016	6.7	5.0198979574268
120	48043	6.8	5.2180023748906
120	49300	6.9	5.4377113760461
120	50801	7	5.6270422646323
120	52772	7.1	5.8779332329415
120	54978	7.2	6.0469425246016
120	57190	7.3	6.3443304809172
120	58690	7.4	6.5838478357893
120	60663	7.5	6.8784984028212
120	61740	7.6	7.1238429820527
120	63608	7.7	7.3107643228386
120	65477	7.8	7.5942333224591
121	47016	6.7	5.2591497706356
121	48043	6.8	5.4551465117828
121	49300	6.9	5.6857659934661
121	50801	7	5.8830923392195
121	52772	7.1	6.0965705385538
121	54978	7.2	6.3071012891353
121	57190	7.3	6.5144011354995
121	58690	7.4	6.7928593163718
121	60663	7.5	6.9519859567042
121	61740	7.6	7.2434157662666
121	63608	7.7	7.4898512540724
121	65477	7.8	7.6489126583668
122	47016	6.7	2.9417805515695
122	48043	6.8	1.9810441746376
122	49300	6.9	2.1970900115557
122	50801	7	1.8933088858612
122	52772	7.1	2.5089096830925
122	54978	7.2	1.6900929166004
122	57190	7.3	2.9738795631565
122	58690	7.4	2.3951735487208
122	60663	7.5	2.9465056703193
122	61740	7.6	2.4534457923146
122	63608	7.7	1.8692134078592
122	65477	7.8	2.8346899962053
123	47016	6.7	4.9227982500197
123	48043	6.8	3.8660804805815
123	49300	6.9	4.2664295004615
123	50801	7	3.9654566075476
123	52772	7.1	4.9663881642026
123	54978	7.2	3.8851249904094
123	57190	7.3	5.9866538358328
123	58690	7.4	5.254408287408
123	60663	7.5	6.3563590631676
123	61740	7.6	5.6992408040543
123	63608	7.7	4.7921236995717
123	65477	7.8	6.7048843190952
124	47016	6.7	2.6037813161965
124	48043	6.8	1.9599674114725
124	49300	6.9	2.3061948168324
124	50801	7	1.9732634575339
124	52772	7.1	2.1347819933435
124	54978	7.2	2.1053075058153
124	57190	7.3	2.0729984636418
124	58690	7.4	2.7845818087226
124	60663	7.5	1.591266403324
124	61740	7.6	2.914298095624
124	63608	7.7	2.4643548780587
124	65477	7.8	1.5906140429433
125	47016	6.7	4.6773148054345
125	48043	6.8	3.9649030005931
125	49300	6.9	4.5613700872183
125	50801	7	4.2103531754751
125	52772	7.1	4.5616100783929
125	54978	7.2	4.637523258915
125	57190	7.3	4.7043400522449
125	58690	7.4	6.0252236671162
125	60663	7.5	4.1424554714779
125	61740	7.6	6.5819130599255
125	63608	7.7	5.9584187755427
125	65477	7.8	4.452442433756
126	47016	6.7	5.3705671012607
126	48043	6.8	5.5646575831548
126	49300	6.9	5.8298213881646
126	50801	7	5.9811396721723
126	52772	7.1	6.2305593914558
126	54978	7.2	6.4639759024927
126	57190	7.3	6.7138682202292
126	58690	7.4	6.8776238154127
126	60663	7.5	7.1179685289129
126	61740	7.6	7.2991500900333
126	63608	7.7	7.514477207637
126	65477	7.8	7.676242537689
127	47016	6.7	5.049469928616
127	48043	6.8	5.3256244906437
127	49300	6.9	5.527175051845
127	50801	7	5.7976876983399
127	52772	7.1	5.9745387137032
127	54978	7.2	6.1488469777026
127	57190	7.3	6.3023780579193
127	58690	7.4	6.5940208539812
127	60663	7.5	6.8881426856367
127	61740	7.6	7.1342260152896
127	63608	7.7	7.3865285392947
127	65477	7.8	7.6540052193197
128	47016	6.7	5.8487434951492
128	48043	6.8	6.0244328687337
128	49300	6.9	6.282292692016
128	50801	7	6.5611540583215
128	52772	7.1	6.849971461787
128	54978	7.2	7.0341347460306
128	57190	7.3	7.3320227724869
128	58690	7.4	7.522671698094
128	60663	7.5	7.6837265664033
128	61740	7.6	7.8542610532624
128	63608	7.7	8.1399495358599
128	65477	7.8	8.3911720374968
129	47016	6.7	1.546390475356
129	48043	6.8	1.9409048189409
129	49300	6.9	2.651638050098
129	50801	7	1.5131828400772
129	52772	7.1	2.4941971928347
129	54978	7.2	2.3341651103692
129	57190	7.3	2.4989231773652
129	58690	7.4	1.6375559518347
129	60663	7.5	2.4034471350024
129	61740	7.6	1.8118156112032
129	63608	7.7	2.1532711760374
129	65477	7.8	1.61765330052
130	47016	6.7	3.3848894516476
130	48043	6.8	3.9972705077946
130	49300	6.9	5.135051133419
130	50801	7	3.5994808965317
130	52772	7.1	5.1781045615619
130	54978	7.2	5.0829771471091
130	57190	7.3	5.5051972974363
130	58690	7.4	4.186090589772
130	60663	7.5	5.6096322009196
130	61740	7.6	4.68519149825
130	63608	7.7	5.411247269658
130	65477	7.8	4.5147040588105
131	47016	6.7	2.300533840782
131	48043	6.8	2.7615456202766
131	49300	6.9	2.0155056120129
131	50801	7	2.705126464949
131	52772	7.1	1.7685101536335
131	54978	7.2	1.7430826399941
131	57190	7.3	1.5353108021664
131	58690	7.4	2.9164279606193
131	60663	7.5	2.941218316555
131	61740	7.6	2.460833296529
131	63608	7.7	2.5230252400506
131	65477	7.8	2.6747668002499
132	47016	6.7	4.1650507640905
132	48043	6.8	4.9252378146297
132	49300	6.9	4.0769820198995
132	50801	7	5.1874014351102
132	52772	7.1	3.9643264400893
132	54978	7.2	4.011121965549
132	57190	7.3	3.769094242681
132	58690	7.4	6.0892498259114
132	60663	7.5	6.3550221899049
132	61740	7.6	5.7187289046158
132	63608	7.7	5.9949281088202
132	65477	7.8	6.4545676152973
133	47016	6.7	2.416984068579
133	48043	6.8	1.7568937358446
133	49300	6.9	2.5785982328234
133	50801	7	2.788613663055
133	52772	7.1	2.8881740346551
133	54978	7.2	1.8416328424355
133	57190	7.3	2.9788802645635
133	58690	7.4	1.9064892560709
133	60663	7.5	1.6105486830929
133	61740	7.6	1.7053448685911
133	63608	7.7	2.8568848259747
133	65477	7.8	2.5122250163695
134	47016	6.7	4.8174789571817
134	48043	6.8	3.9716307353656
134	49300	6.9	5.3400442646488
134	50801	7	5.8620646824033
134	52772	7.1	6.2380568320758
134	54978	7.2	4.6034631690192
134	57190	7.3	6.7638422654744
134	58690	7.4	4.9686166772342
134	60663	7.5	4.5049489300706
134	61740	7.6	4.7616573418737
134	63608	7.7	7.1569255717924
134	65477	7.8	6.6497744899725
135	47016	6.7	326.6
135	48043	6.8	326.6
135	49300	6.9	326.6
135	50801	7	326.6
135	52772	7.1	326.6
135	54978	7.2	326.6
135	57190	7.3	326.6
135	58690	7.4	326.6
135	60663	7.5	326.6
135	61740	7.6	326.6
135	63608	7.7	326.6
135	65477	7.8	326.6
136	47016	6.7	413.86806679112
136	48043	6.8	413.30687354828
136	49300	6.9	412.71868479849
136	50801	7	412.10788591822
136	52772	7.1	411.46830417366
136	54978	7.2	410.79939113046
136	57190	7.3	410.10054246843
136	58690	7.4	409.3735617354
136	60663	7.5	408.62150517941
136	61740	7.6	407.84225980414
136	63608	7.7	407.03523072318
136	65477	7.8	406.21119906687
137	47016	6.7	5.3462734262628
137	48043	6.8	5.6119324283319
137	49300	6.9	5.8818874979327
137	50801	7	6.1079888026515
137	52772	7.1	6.3958174455963
137	54978	7.2	6.68913043203
137	57190	7.3	6.988486620335
137	58690	7.4	7.2698073302797
137	60663	7.5	7.5205655599414
137	61740	7.6	7.7924537526729
137	63608	7.7	8.070290809549
137	65477	7.8	8.2403165631863
138	47016	6.7	2.8745080068475
138	48043	6.8	2.6565900206915
138	49300	6.9	2.6995506960084
138	50801	7	2.2610130471876
138	52772	7.1	2.8782864294481
138	54978	7.2	2.9331298643374
138	57190	7.3	2.9935618830496
138	58690	7.4	2.813207099447
138	60663	7.5	2.5075822966173
138	61740	7.6	2.7188819273142
138	63608	7.7	2.7783705687616
138	65477	7.8	1.7002575363731
139	47016	6.7	5.085685993454
139	48043	6.8	4.9900202439599
139	49300	6.9	5.2392480279885
139	50801	7	4.7539685332487
139	52772	7.1	5.879271044071
139	54978	7.2	6.1887740607747
139	57190	7.3	6.5204870464398
139	58690	7.4	6.424993534221
139	60663	7.5	6.0569692288456
139	61740	7.6	6.6356290014195
139	63608	7.7	6.9516308221164
139	65477	7.8	4.9357717565551
140	47016	6.7	105.65569793293
140	48043	6.8	105.21707747084
140	49300	6.9	104.76327193549
140	50801	7	104.29442931601
140	52772	7.1	103.80977123802
140	54978	7.2	103.30547820917
140	57190	7.3	102.77460631271
140	58690	7.4	102.22245625093
140	60663	7.5	101.6446712465
140	61740	7.6	101.04681623042
140	63608	7.7	100.42362078252
140	65477	7.8	99.77662246365
141	47016	6.7	320.2
141	48043	6.8	320.2
141	49300	6.9	320.2
141	50801	7	320.2
141	52772	7.1	320.2
141	54978	7.2	320.2
141	57190	7.3	320.2
141	58690	7.4	320.2
141	60663	7.5	320.2
141	61740	7.6	320.2
141	63608	7.7	320.2
141	65477	7.8	320.2
142	47016	6.7	320.2
142	48043	6.8	320.2
142	49300	6.9	320.2
142	50801	7	320.2
142	52772	7.1	320.2
142	54978	7.2	320.2
142	57190	7.3	320.2
142	58690	7.4	320.2
142	60663	7.5	320.2
142	61740	7.6	320.2
142	63608	7.7	320.2
142	65477	7.8	320.2
143	47016	6.7	33.433653969838
143	48043	6.8	33.81972478373
143	49300	6.9	34.230134419045
143	50801	7	34.657099443325
143	52772	7.1	35.106859190834
143	54978	7.2	35.575042597979
143	57190	7.3	36.067804437576
143	58690	7.4	36.588604784532
143	60663	7.5	37.136906019524
143	61740	7.6	37.708942648508
143	63608	7.7	38.297555157731
143	65477	7.8	38.908021681011
144	47016	6.7	4.1604040474269
144	48043	6.8	4.3862046208452
144	49300	6.9	4.5380553534823
144	50801	7	4.6884261948975
144	52772	7.1	4.8465807798422
144	54978	7.2	5.0429302884718
144	57190	7.3	5.3087189646774
144	58690	7.4	5.5215006177999
144	60663	7.5	5.7778500443079
144	61740	7.6	5.9785501607448
144	63608	7.7	6.2319544790416
144	65477	7.8	6.469983188667
145	47016	6.7	2.4292785145808
145	48043	6.8	2.2580057341838
145	49300	6.9	1.518507326371
145	50801	7	1.5037084141513
145	52772	7.1	1.5815458494471
145	54978	7.2	1.9634950862965
145	57190	7.3	2.6578867620556
145	58690	7.4	2.1278165312251
145	60663	7.5	2.5634942650795
145	61740	7.6	2.0070011643693
145	63608	7.7	2.5340431829682
145	65477	7.8	2.3802870962536
146	47016	6.7	3.7530843241659
146	48043	6.8	3.7162680476254
146	49300	6.9	2.9982971368759
146	50801	7	3.0447462985321
146	52772	7.1	3.2016023681547
146	54978	7.2	3.75144460806
146	57190	7.3	4.7804173803998
146	58690	7.4	4.2233540897336
146	60663	7.5	4.9761099946754
146	61740	7.6	4.3098945279281
146	63608	7.7	5.2388701957441
146	65477	7.8	5.158632308742
147	47016	6.7	3.6994731538563
147	48043	6.8	3.8607081389271
147	49300	6.9	4.1040963531455
147	50801	7	4.269650242802
147	52772	7.1	4.4975974750921
147	54978	7.2	4.6818340714422
147	57190	7.3	4.9276183959779
147	58690	7.4	5.2080034695549
147	60663	7.5	5.4830123499252
147	61740	7.6	5.7203662898375
147	63608	7.7	5.88612509223
147	65477	7.8	6.1046652327974
148	47016	6.7	2.1258388323477
148	48043	6.8	1.6123498507077
148	49300	6.9	2.4338821421843
148	50801	7	1.6555388965644
148	52772	7.1	2.2794723229017
148	54978	7.2	1.8423659635009
148	57190	7.3	2.4578432453563
148	58690	7.4	2.8038507357705
148	60663	7.5	2.750088803703
148	61740	7.6	2.3735393991228
148	63608	7.7	1.6575880239252
148	65477	7.8	2.1854014056735
149	47016	6.7	3.1884804229973
149	48043	6.8	2.8017361596281
149	49300	6.9	3.7216892799996
149	50801	7	3.0266841349312
149	52772	7.1	3.8061365521552
149	54978	7.2	3.4241140158103
149	57190	7.3	4.277587981505
149	58690	7.4	4.8934772762485
149	60663	7.5	5.0237118580102
149	61740	7.6	4.6754234879674
149	63608	7.7	3.7641674988973
149	65477	7.8	4.6407211466636
150	47016	6.7	329.8
150	48043	6.8	329.8
150	49300	6.9	329.8
150	50801	7	329.8
150	52772	7.1	329.8
150	54978	7.2	329.8
150	57190	7.3	329.8
150	58690	7.4	329.8
150	60663	7.5	326.6
150	61740	7.6	326.6
150	63608	7.7	326.6
150	65477	7.8	326.6
151	47016	6.7	418.37758376899
151	48043	6.8	418.20095705182
151	49300	6.9	417.99967464735
151	50801	7	417.77467101964
151	52772	7.1	417.5221864267
151	54978	7.2	417.24891870191
151	57190	7.3	416.95683060649
151	58690	7.4	416.64481272395
151	60663	7.5	416.31297501408
151	61740	7.6	415.96232344603
151	63608	7.7	415.58374675761
151	65477	7.8	415.18119551537
152	47016	6.7	1.5526464649888
152	48043	6.8	1.7662671716717
152	49300	6.9	2.0128240447012
152	50801	7	2.2500362771177
152	52772	7.1	2.5248459294027
152	54978	7.2	2.732677247877
152	57190	7.3	2.9208809542248
152	58690	7.4	3.1201788253744
152	60663	7.5	3.3183770987449
152	61740	7.6	3.5065156804642
152	63608	7.7	3.7857668841618
152	65477	7.8	4.0255124224827
153	47016	6.7	-1.9444444444444
153	48043	6.8	2.1362070668288
153	49300	6.9	2.4655687302949
153	50801	7	2.3721223241654
153	52772	7.1	2.7480965228502
153	54978	7.2	2.0783131847426
153	57190	7.3	1.8820370634785
153	58690	7.4	1.9929787114961
153	60663	7.5	1.9819827337051
153	61740	7.6	1.8813858171925
153	63608	7.7	2.7925120369764
153	65477	7.8	2.3974553832086
154	47016	6.7	0.973
154	48043	6.8	2.1050338483915
154	49300	6.9	2.4038761721879
154	50801	7	2.5058981233209
154	52772	7.1	2.9054688494472
154	54978	7.2	2.6124350209484
154	57190	7.3	2.5780320421801
154	58690	7.4	2.761970022239
154	60663	7.5	2.8585029362884
154	61740	7.6	2.8730404597758
154	63608	7.7	3.8454413645963
154	65477	7.8	3.6361045464986
155	47016	6.7	129.8
155	48043	6.8	129.8
155	49300	6.9	129.8
155	50801	7	129.8
155	52772	7.1	129.8
155	54978	7.2	129.8
155	57190	7.3	129.8
155	58690	7.4	129.8
155	60663	7.5	129.8
155	61740	7.6	129.8
155	63608	7.7	129.8
155	65477	7.8	129.8
156	47016	6.7	415.93511918256
156	48043	6.8	415.60994054315
156	49300	6.9	415.25043154886
156	50801	7	414.84826420252
156	52772	7.1	414.40869365369
156	54978	7.2	413.92654561743
156	57190	7.3	413.39819289086
156	58690	7.4	412.84281671416
156	60663	7.5	412.24948367568
156	61740	7.6	411.6124855605
156	63608	7.7	410.93090191523
156	65477	7.8	410.20534713928
157	47016	6.7	2.7549860318722
157	48043	6.8	3.2517863940943
157	49300	6.9	3.5950899429737
157	50801	7	4.0216734633632
157	52772	7.1	4.3957054883282
157	54978	7.2	4.8214803625457
157	57190	7.3	5.2835272656963
157	58690	7.4	5.5537617669767
157	60663	7.5	5.933330384884
157	61740	7.6	6.3699811517587
157	63608	7.7	6.8158364527486
157	65477	7.8	7.2555477594584
158	47016	6.7	4.7578264767778
158	48043	6.8	4.9680036222208
158	49300	6.9	3.4330354887936
158	50801	7	4.2658352038952
158	52772	7.1	3.7403202496502
158	54978	7.2	4.257748742175
158	57190	7.3	4.6204690315062
158	58690	7.4	2.7023450128036
158	60663	7.5	3.7956861790735
158	61740	7.6	4.3665076687466
158	63608	7.7	4.4585530098993
158	65477	7.8	4.397113067098
159	47016	6.7	4.4037988491383
159	48043	6.8	5.1633702683746
159	49300	6.9	4.2621587541811
159	50801	7	5.4445612955329
159	52772	7.1	5.2922594622563
159	54978	7.2	6.3003474692273
159	57190	7.3	7.2618847676432
159	58690	7.4	5.0107096088451
159	60663	7.5	6.8430953952886
159	61740	7.6	8.1444770395259
159	63608	7.7	8.7917393600811
159	65477	7.8	9.1840268610924
160	47016	6.7	30.273082078841
160	48043	6.8	30.386194356933
160	49300	6.9	30.523253482042
160	50801	7	30.682709059882
160	52772	7.1	30.86667755473
160	54978	7.2	31.075747972337
160	57190	7.3	31.306065290492
160	58690	7.4	31.563124501254
160	60663	7.5	31.845201181608
160	61740	7.6	32.146657769833
160	63608	7.7	32.467514142362
160	65477	7.8	32.815853011356
161	47016	6.7	129.8
161	48043	6.8	129.8
161	49300	6.9	129.8
161	50801	7	129.8
161	52772	7.1	129.8
161	54978	7.2	126.6
161	57190	7.3	126.6
161	58690	7.4	126.6
161	60663	7.5	126.6
161	61740	7.6	126.6
161	63608	7.7	126.6
161	65477	7.8	126.6
162	47016	6.7	120.2
162	48043	6.8	120.2
162	49300	6.9	120.2
162	50801	7	120.2
162	52772	7.1	120.2
162	54978	7.2	123.4
162	57190	7.3	123.4
162	58690	7.4	123.4
162	60663	7.5	123.4
162	61740	7.6	123.4
162	63608	7.7	123.4
162	65477	7.8	123.4
163	47016	6.7	30.273142524117
163	48043	6.8	30.388510466824
163	49300	6.9	30.533693277213
163	50801	7	30.704574500754
163	52772	7.1	30.897475621683
163	54978	7.2	31.117081874964
163	57190	7.3	31.355727999178
163	58690	7.4	31.616249653183
163	60663	7.5	31.900354977814
163	61740	7.6	32.210018199455
163	63608	7.7	32.536474282699
163	65477	7.8	32.882543284152
164	47016	6.7	419.72736750069
164	48043	6.8	419.61257526424
164	49300	6.9	419.46869684018
164	50801	7	419.29549385824
164	52772	7.1	419.09557150237
164	54978	7.2	418.87018875094
164	57190	7.3	418.62521873867
164	58690	7.4	418.36111245524
164	60663	7.5	418.07227752292
164	61740	7.6	417.76619316922
164	63608	7.7	417.43106219079
164	65477	7.8	417.07592004764
165	47016	6.7	320.2
165	48043	6.8	320.2
165	49300	6.9	320.2
165	50801	7	320.2
165	52772	7.1	323.4
165	54978	7.2	323.4
165	57190	7.3	323.4
165	58690	7.4	323.4
165	60663	7.5	323.4
165	61740	7.6	323.4
165	63608	7.7	323.4
165	65477	7.8	323.4
166	47016	6.7	0.86640923169931
166	48043	6.8	1.1311227809173
166	49300	6.9	1.3705912510928
166	50801	7	1.5945557783922
166	52772	7.1	1.8396849484819
166	54978	7.2	2.0907041760727
166	57190	7.3	2.3031731815539
166	58690	7.4	2.5705921076206
166	60663	7.5	2.8207668035384
166	61740	7.6	3.0145658822474
166	63608	7.7	3.2085637252871
166	65477	7.8	3.483388689938
167	47016	6.7	0.87211943436484
167	48043	6.8	1.1536794270681
167	49300	6.9	1.4518281038891
167	50801	7	1.7088122354069
167	52772	7.1	1.9290112092965
167	54978	7.2	2.1960625328064
167	57190	7.3	2.3864612421357
167	58690	7.4	2.6052165400546
167	60663	7.5	2.8410532463057
167	61740	7.6	3.0966322164116
167	63608	7.7	3.2645608324389
167	65477	7.8	3.4606900145364
168	47016	6.7	0.86691197146213
168	48043	6.8	1.1479223644692
168	49300	6.9	1.4387842406684
168	50801	7	1.7320298193877
168	52772	7.1	1.9992235586723
168	54978	7.2	2.2538275143688
168	57190	7.3	2.4497001226159
168	58690	7.4	2.6410628343076
168	60663	7.5	2.8883493232358
168	61740	7.6	3.0608435369845
168	63608	7.7	3.3513097843322
168	65477	7.8	3.5514214315152
169	47016	6.7	2.984585926012
169	48043	6.8	2.6471354921797
169	49300	6.9	2.3946847017549
169	50801	7	2.2396452729941
169	52772	7.1	2.4512917008976
169	54978	7.2	2.5101922759071
169	57190	7.3	2.1246900548125
169	58690	7.4	2.6741892606673
169	60663	7.5	2.5017469591779
169	61740	7.6	1.9379907870898
169	63608	7.7	1.9399784303969
169	65477	7.8	2.7482496465091
170	47016	6.7	1.775051007577
170	48043	6.8	1.8863097513905
170	49300	6.9	1.9673494385651
170	50801	7	2.0479645793551
170	52772	7.1	2.2861362525649
170	54978	7.2	2.4764845226072
170	57190	7.3	2.4015742325434
170	58690	7.4	2.8922687449094
170	60663	7.5	2.9488467387185
170	61740	7.6	2.665923813814
170	63608	7.7	2.7679477582881
170	65477	7.8	3.5890897263001
171	47016	6.7	2.9831905293096
171	48043	6.8	2.8155999270329
171	49300	6.9	2.9814867682097
171	50801	7	2.5698413151784
171	52772	7.1	2.2019897388961
171	54978	7.2	2.6705132350984
171	57190	7.3	1.9039870932936
171	58690	7.4	2.1875529791887
171	60663	7.5	2.3583670625112
171	61740	7.6	2.5557897010585
171	63608	7.7	1.6792861602735
171	65477	7.8	1.961291820975
172	47016	6.7	1.7791416422727
172	48043	6.8	1.9486355754409
172	49300	6.9	2.2235129966693
172	50801	7	2.2512157383273
172	52772	7.1	2.2274053538282
172	54978	7.2	2.6302884230664
172	57190	7.3	2.3214321739154
172	58690	7.4	2.6107799476766
172	60663	7.5	2.8639302046184
172	61740	7.6	3.1694807528409
172	63608	7.7	2.5918901927197
172	65477	7.8	2.9165414175721
173	47016	6.7	2.9637867159754
173	48043	6.8	2.8101039300711
173	49300	6.9	2.9086187619918
173	50801	7	2.9324557871934
173	52772	7.1	2.6719373928451
173	54978	7.2	2.5460395569653
173	57190	7.3	1.9587260824715
173	58690	7.4	1.9136271169169
173	60663	7.5	2.4728648892818
173	61740	7.6	1.7249421374872
173	63608	7.7	2.9046624734765
173	65477	7.8	2.0011164718308
174	47016	6.7	1.7710914863804
174	48043	6.8	1.9429287681077
174	49300	6.9	2.1882369312409
174	50801	7	2.4180964248355
174	52772	7.1	2.4945545592437
174	54978	7.2	2.6027207671167
174	57190	7.3	2.3859198278636
174	58690	7.4	2.4571229517827
174	60663	7.5	2.9729018830361
174	61740	7.6	2.5327306747396
174	63608	7.7	3.6211404058496
174	65477	7.8	2.998199173451
175	60663	7.5	109.5
175	61740	7.6	109.47019422572
175	63608	7.7	109.41116212605
175	65477	7.8	109.32255646933
176	60663	7.5	320.2
176	61740	7.6	320.2
176	63608	7.7	320.2
176	65477	7.8	320.2
177	60663	7.5	329.8
177	61740	7.6	329.8
177	63608	7.7	329.8
177	65477	7.8	329.8
178	60663	7.5	419.9
178	61740	7.6	419.87122841784
178	63608	7.7	419.81345919407
178	65477	7.8	419.72574947226
179	61740	7.6	320.2
179	63608	7.7	320.2
179	65477	7.8	320.2
180	61740	7.6	30.1
180	63608	7.7	30.129992728567
180	65477	7.8	30.187020967589
181	61740	7.6	0.29805774281966
181	63608	7.7	0.59032099664057
181	65477	7.8	0.88605656722049
182	61740	7.6	0.28771582159912
182	63608	7.7	0.57769223773412
182	65477	7.8	0.87709721808875
183	63608	7.7	2.9226325382091
183	65477	7.8	2.9573557057992
184	63608	7.7	1.5542913045613
184	65477	7.8	1.7843202823972
185	63608	7.7	2.8997641613499
185	65477	7.8	2.9940498035464
186	63608	7.7	1.5416019540738
186	65477	7.8	1.7852570360898
187	63608	7.7	0.29992728566984
187	65477	7.8	0.57028239021974
188	65477	7.8	2.703551045499
189	65477	7.8	1.5090983559719
