file 16630732 1645040974                                        
version 2
run Default-0-20220216-20:45:44-6924
attr configname Default
attr datetime 20220216-20:45:44
attr experiment Default
attr inifile omnetpp.ini
attr iterationvars ""
attr iterationvarsf ""
attr measurement ""
attr network tlExample
attr processid 6924
attr repetition 0
attr replication #0
attr resultdir results
attr runnumber 0
attr seedset 0
param *.playgroundSizeX 5000m
param *.playgroundSizeY 5000m
param *.playgroundSizeZ 50m
param *.annotations.draw true
param *.obstacles.obstacles "xmldoc(\"config.xml\", \"//AnalogueModel[@type='SimpleObstacleShadowing']/obstacles\")"
param *.manager.updateInterval 0.1s
param *.manager.host "\"localhost\""
param *.manager.port 9999
param *.manager.autoShutdown true
param *.manager.launchConfig "xmldoc(\"traffic_light_example.launchd.xml\")"
param *.rsu[0].mobility.x 825
param *.rsu[0].mobility.y 825
param *.rsu[0].mobility.z 3
param *.rsu[1].mobility.x 1625
param *.rsu[1].mobility.y 825
param *.rsu[1].mobility.z 3
param *.rsu[2].mobility.x 2425
param *.rsu[2].mobility.y 825
param *.rsu[2].mobility.z 3
param *.rsu[3].mobility.x 3225
param *.rsu[3].mobility.y 825
param *.rsu[3].mobility.z 3
param *.rsu[4].mobility.x 825
param *.rsu[4].mobility.y 1625
param *.rsu[4].mobility.z 3
param *.rsu[5].mobility.x 1625
param *.rsu[5].mobility.y 1625
param *.rsu[5].mobility.z 3
param *.rsu[6].mobility.x 2425
param *.rsu[6].mobility.y 1625
param *.rsu[6].mobility.z 3
param *.rsu[7].mobility.x 3225
param *.rsu[7].mobility.y 1625
param *.rsu[7].mobility.z 3
param *.rsu[8].mobility.x 825
param *.rsu[8].mobility.y 2425
param *.rsu[8].mobility.z 3
param *.rsu[9].mobility.x 1625
param *.rsu[9].mobility.y 2425
param *.rsu[9].mobility.z 3
param *.rsu[10].mobility.x 2425
param *.rsu[10].mobility.y 2425
param *.rsu[10].mobility.z 3
param *.rsu[11].mobility.x 3225
param *.rsu[11].mobility.y 2425
param *.rsu[11].mobility.z 3
param *.rsu[12].mobility.x 825
param *.rsu[12].mobility.y 3225
param *.rsu[12].mobility.z 3
param *.rsu[13].mobility.x 1625
param *.rsu[13].mobility.y 3225
param *.rsu[13].mobility.z 3
param *.rsu[14].mobility.x 2425
param *.rsu[14].mobility.y 3225
param *.rsu[14].mobility.z 3
param *.rsu[15].mobility.x 3225
param *.rsu[15].mobility.y 3225
param *.rsu[15].mobility.z 3
param *.rsu[*].applType "\"TlRSU\""
param *.rsu[*].appl.headerLength "80 bit"
param *.rsu[*].appl.sendBeacons false
param *.rsu[*].appl.dataOnSch true
param *.rsu[*].appl.beaconInterval 1s
param *.rsu[*].appl.beaconUserPriority 7
param *.rsu[*].appl.dataUserPriority 5
param *.rsu[*].nic.phy80211p.antennaOffsetZ "0 m"
param *.connectionManager.sendDirect true
param *.connectionManager.maxInterfDist 2600m
param *.connectionManager.drawMaxIntfDist false
param *.**.nic.mac1609_4.useServiceChannel true
param *.**.nic.mac1609_4.txPower 20mW
param *.**.nic.mac1609_4.bitrate 6Mbps
param *.**.nic.phy80211p.minPowerLevel -110dBm
param *.**.nic.phy80211p.useNoiseFloor true
param *.**.nic.phy80211p.noiseFloor -98dBm
param *.**.nic.phy80211p.decider "xmldoc(\"config.xml\")"
param *.**.nic.phy80211p.analogueModels "xmldoc(\"config.xml\")"
param *.**.nic.phy80211p.usePropagationDelay true
param *.**.nic.phy80211p.antenna "xmldoc(\"antenna.xml\", \"/root/Antenna[@id='monopole']\")"
param *.node[*].nic.phy80211p.antennaOffsetY "0 m"
param *.node[*].nic.phy80211p.antennaOffsetZ "1.895 m"
param *.node[*].applType "\"TlVehicle\""
param *.node[*].appl.headerLength "80 bit"
param *.node[*].appl.sendBeacons false
param *.node[*].appl.dataOnSch true
param *.node[*].appl.beaconInterval 1s
param *.node[*].veinsmobility.x 0
param *.node[*].veinsmobility.y 0
param *.node[*].veinsmobility.z 0
param *.node[*].veinsmobility.setHostSpeed true
param *.node[*0].veinsmobility.accidentCount 0
param *.node[*0].veinsmobility.accidentStart 73s
param *.node[*0].veinsmobility.accidentDuration 50s

vector 0 tlExample.node[0].veinsmobility posx ETV
vector 1 tlExample.node[0].veinsmobility posy ETV
vector 2 tlExample.node[1].veinsmobility posx ETV
vector 3 tlExample.node[1].veinsmobility posy ETV
vector 4 tlExample.node[2].veinsmobility posx ETV
vector 5 tlExample.node[2].veinsmobility posy ETV
vector 6 tlExample.node[3].veinsmobility posx ETV
vector 7 tlExample.node[3].veinsmobility posy ETV
vector 8 tlExample.node[4].veinsmobility posx ETV
vector 9 tlExample.node[4].veinsmobility posy ETV
vector 10 tlExample.node[5].veinsmobility posx ETV
vector 11 tlExample.node[5].veinsmobility posy ETV
vector 12 tlExample.node[6].veinsmobility posx ETV
vector 13 tlExample.node[6].veinsmobility posy ETV
vector 14 tlExample.node[7].veinsmobility posx ETV
vector 15 tlExample.node[7].veinsmobility posy ETV
vector 16 tlExample.node[8].veinsmobility posx ETV
vector 17 tlExample.node[8].veinsmobility posy ETV
vector 18 tlExample.node[9].veinsmobility posx ETV
vector 19 tlExample.node[9].veinsmobility posy ETV
vector 20 tlExample.node[10].veinsmobility posx ETV
vector 21 tlExample.node[10].veinsmobility posy ETV
vector 22 tlExample.node[11].veinsmobility posx ETV
vector 23 tlExample.node[11].veinsmobility posy ETV
vector 24 tlExample.node[12].veinsmobility posx ETV
vector 25 tlExample.node[12].veinsmobility posy ETV
vector 26 tlExample.node[13].veinsmobility posx ETV
vector 27 tlExample.node[13].veinsmobility posy ETV
vector 28 tlExample.node[14].veinsmobility posx ETV
vector 29 tlExample.node[14].veinsmobility posy ETV
vector 30 tlExample.node[15].veinsmobility posx ETV
vector 31 tlExample.node[15].veinsmobility posy ETV
vector 32 tlExample.node[0].veinsmobility speed ETV
vector 33 tlExample.node[1].veinsmobility speed ETV
vector 34 tlExample.node[2].veinsmobility speed ETV
vector 35 tlExample.node[3].veinsmobility speed ETV
vector 36 tlExample.node[4].veinsmobility speed ETV
vector 37 tlExample.node[5].veinsmobility speed ETV
vector 38 tlExample.node[6].veinsmobility speed ETV
vector 39 tlExample.node[7].veinsmobility speed ETV
vector 40 tlExample.node[8].veinsmobility speed ETV
vector 41 tlExample.node[9].veinsmobility speed ETV
vector 42 tlExample.node[10].veinsmobility speed ETV
vector 43 tlExample.node[11].veinsmobility speed ETV
vector 44 tlExample.node[12].veinsmobility speed ETV
vector 45 tlExample.node[13].veinsmobility speed ETV
vector 46 tlExample.node[14].veinsmobility speed ETV
vector 47 tlExample.node[15].veinsmobility speed ETV
vector 48 tlExample.node[0].veinsmobility acceleration ETV
vector 49 tlExample.node[0].veinsmobility co2emission ETV
vector 50 tlExample.node[1].veinsmobility acceleration ETV
vector 51 tlExample.node[1].veinsmobility co2emission ETV
vector 52 tlExample.node[2].veinsmobility acceleration ETV
vector 53 tlExample.node[2].veinsmobility co2emission ETV
vector 54 tlExample.node[3].veinsmobility acceleration ETV
vector 55 tlExample.node[3].veinsmobility co2emission ETV
vector 56 tlExample.node[4].veinsmobility acceleration ETV
vector 57 tlExample.node[4].veinsmobility co2emission ETV
vector 58 tlExample.node[5].veinsmobility acceleration ETV
vector 59 tlExample.node[5].veinsmobility co2emission ETV
vector 60 tlExample.node[6].veinsmobility acceleration ETV
vector 61 tlExample.node[6].veinsmobility co2emission ETV
vector 62 tlExample.node[7].veinsmobility acceleration ETV
vector 63 tlExample.node[7].veinsmobility co2emission ETV
vector 64 tlExample.node[8].veinsmobility acceleration ETV
vector 65 tlExample.node[8].veinsmobility co2emission ETV
vector 66 tlExample.node[9].veinsmobility acceleration ETV
vector 67 tlExample.node[9].veinsmobility co2emission ETV
vector 68 tlExample.node[10].veinsmobility acceleration ETV
vector 69 tlExample.node[10].veinsmobility co2emission ETV
vector 70 tlExample.node[11].veinsmobility acceleration ETV
vector 71 tlExample.node[11].veinsmobility co2emission ETV
vector 72 tlExample.node[12].veinsmobility acceleration ETV
vector 73 tlExample.node[12].veinsmobility co2emission ETV
vector 74 tlExample.node[13].veinsmobility acceleration ETV
vector 75 tlExample.node[13].veinsmobility co2emission ETV
vector 76 tlExample.node[14].veinsmobility acceleration ETV
vector 77 tlExample.node[14].veinsmobility co2emission ETV
vector 78 tlExample.node[15].veinsmobility acceleration ETV
vector 79 tlExample.node[15].veinsmobility co2emission ETV
vector 80 tlExample.node[16].veinsmobility posx ETV
vector 81 tlExample.node[16].veinsmobility posy ETV
vector 82 tlExample.node[17].veinsmobility posx ETV
vector 83 tlExample.node[17].veinsmobility posy ETV
vector 84 tlExample.node[18].veinsmobility posx ETV
vector 85 tlExample.node[18].veinsmobility posy ETV
vector 86 tlExample.node[19].veinsmobility posx ETV
vector 87 tlExample.node[19].veinsmobility posy ETV
vector 88 tlExample.node[20].veinsmobility posx ETV
vector 89 tlExample.node[20].veinsmobility posy ETV
vector 90 tlExample.node[21].veinsmobility posx ETV
vector 91 tlExample.node[21].veinsmobility posy ETV
vector 92 tlExample.node[22].veinsmobility posx ETV
vector 93 tlExample.node[22].veinsmobility posy ETV
vector 94 tlExample.node[23].veinsmobility posx ETV
vector 95 tlExample.node[23].veinsmobility posy ETV
vector 96 tlExample.node[24].veinsmobility posx ETV
vector 97 tlExample.node[24].veinsmobility posy ETV
vector 98 tlExample.node[25].veinsmobility posx ETV
vector 99 tlExample.node[25].veinsmobility posy ETV
vector 100 tlExample.node[26].veinsmobility posx ETV
vector 101 tlExample.node[26].veinsmobility posy ETV
vector 102 tlExample.node[27].veinsmobility posx ETV
vector 103 tlExample.node[27].veinsmobility posy ETV
vector 104 tlExample.node[28].veinsmobility posx ETV
vector 105 tlExample.node[28].veinsmobility posy ETV
vector 106 tlExample.node[29].veinsmobility posx ETV
vector 107 tlExample.node[29].veinsmobility posy ETV
vector 108 tlExample.node[16].veinsmobility speed ETV
vector 109 tlExample.node[17].veinsmobility speed ETV
vector 110 tlExample.node[18].veinsmobility speed ETV
vector 111 tlExample.node[30].veinsmobility posx ETV
vector 112 tlExample.node[30].veinsmobility posy ETV
vector 113 tlExample.node[31].veinsmobility posx ETV
vector 114 tlExample.node[31].veinsmobility posy ETV
vector 115 tlExample.node[16].veinsmobility acceleration ETV
vector 116 tlExample.node[16].veinsmobility co2emission ETV
vector 117 tlExample.node[17].veinsmobility acceleration ETV
vector 118 tlExample.node[17].veinsmobility co2emission ETV
vector 119 tlExample.node[18].veinsmobility acceleration ETV
vector 120 tlExample.node[18].veinsmobility co2emission ETV
vector 121 tlExample.node[19].veinsmobility speed ETV
vector 122 tlExample.node[20].veinsmobility speed ETV
vector 123 tlExample.node[21].veinsmobility speed ETV
vector 124 tlExample.node[22].veinsmobility speed ETV
vector 125 tlExample.node[23].veinsmobility speed ETV
vector 126 tlExample.node[24].veinsmobility speed ETV
vector 127 tlExample.node[25].veinsmobility speed ETV
vector 128 tlExample.node[26].veinsmobility speed ETV
vector 129 tlExample.node[27].veinsmobility speed ETV
vector 130 tlExample.node[28].veinsmobility speed ETV
vector 131 tlExample.node[29].veinsmobility speed ETV
vector 132 tlExample.node[19].veinsmobility acceleration ETV
vector 133 tlExample.node[19].veinsmobility co2emission ETV
vector 134 tlExample.node[20].veinsmobility acceleration ETV
vector 135 tlExample.node[20].veinsmobility co2emission ETV
vector 136 tlExample.node[21].veinsmobility acceleration ETV
vector 137 tlExample.node[21].veinsmobility co2emission ETV
vector 138 tlExample.node[22].veinsmobility acceleration ETV
vector 139 tlExample.node[22].veinsmobility co2emission ETV
vector 140 tlExample.node[23].veinsmobility acceleration ETV
vector 141 tlExample.node[23].veinsmobility co2emission ETV
vector 142 tlExample.node[24].veinsmobility acceleration ETV
vector 143 tlExample.node[24].veinsmobility co2emission ETV
vector 144 tlExample.node[25].veinsmobility acceleration ETV
vector 145 tlExample.node[25].veinsmobility co2emission ETV
vector 146 tlExample.node[26].veinsmobility acceleration ETV
vector 147 tlExample.node[26].veinsmobility co2emission ETV
vector 148 tlExample.node[27].veinsmobility acceleration ETV
vector 149 tlExample.node[27].veinsmobility co2emission ETV
vector 150 tlExample.node[28].veinsmobility acceleration ETV
vector 151 tlExample.node[28].veinsmobility co2emission ETV
vector 152 tlExample.node[29].veinsmobility acceleration ETV
vector 153 tlExample.node[29].veinsmobility co2emission ETV
vector 154 tlExample.node[30].veinsmobility speed ETV
vector 155 tlExample.node[31].veinsmobility speed ETV
vector 156 tlExample.node[30].veinsmobility acceleration ETV
vector 157 tlExample.node[30].veinsmobility co2emission ETV
vector 158 tlExample.node[31].veinsmobility acceleration ETV
vector 159 tlExample.node[31].veinsmobility co2emission ETV
vector 160 tlExample.node[32].veinsmobility posx ETV
vector 161 tlExample.node[32].veinsmobility posy ETV
vector 162 tlExample.node[33].veinsmobility posx ETV
vector 163 tlExample.node[33].veinsmobility posy ETV
vector 164 tlExample.node[34].veinsmobility posx ETV
vector 165 tlExample.node[34].veinsmobility posy ETV
vector 166 tlExample.node[35].veinsmobility posx ETV
vector 167 tlExample.node[35].veinsmobility posy ETV
vector 168 tlExample.node[36].veinsmobility posx ETV
vector 169 tlExample.node[36].veinsmobility posy ETV
vector 170 tlExample.node[37].veinsmobility posx ETV
vector 171 tlExample.node[37].veinsmobility posy ETV
vector 172 tlExample.node[38].veinsmobility posx ETV
vector 173 tlExample.node[38].veinsmobility posy ETV
vector 174 tlExample.node[39].veinsmobility posx ETV
vector 175 tlExample.node[39].veinsmobility posy ETV
vector 176 tlExample.node[40].veinsmobility posx ETV
vector 177 tlExample.node[40].veinsmobility posy ETV
vector 178 tlExample.node[32].veinsmobility speed ETV
vector 179 tlExample.node[33].veinsmobility speed ETV
vector 180 tlExample.node[34].veinsmobility speed ETV
vector 181 tlExample.node[41].veinsmobility posx ETV
vector 182 tlExample.node[41].veinsmobility posy ETV
vector 183 tlExample.node[42].veinsmobility posx ETV
vector 184 tlExample.node[42].veinsmobility posy ETV
vector 185 tlExample.node[43].veinsmobility posx ETV
vector 186 tlExample.node[43].veinsmobility posy ETV
vector 187 tlExample.node[44].veinsmobility posx ETV
vector 188 tlExample.node[44].veinsmobility posy ETV
vector 189 tlExample.node[32].veinsmobility acceleration ETV
vector 190 tlExample.node[32].veinsmobility co2emission ETV
vector 191 tlExample.node[33].veinsmobility acceleration ETV
vector 192 tlExample.node[33].veinsmobility co2emission ETV
vector 193 tlExample.node[34].veinsmobility acceleration ETV
vector 194 tlExample.node[34].veinsmobility co2emission ETV
vector 195 tlExample.node[35].veinsmobility speed ETV
vector 196 tlExample.node[36].veinsmobility speed ETV
vector 197 tlExample.node[37].veinsmobility speed ETV
vector 198 tlExample.node[38].veinsmobility speed ETV
vector 199 tlExample.node[39].veinsmobility speed ETV
vector 200 tlExample.node[40].veinsmobility speed ETV
vector 201 tlExample.node[45].veinsmobility posx ETV
vector 202 tlExample.node[45].veinsmobility posy ETV
vector 203 tlExample.node[46].veinsmobility posx ETV
vector 204 tlExample.node[46].veinsmobility posy ETV
vector 205 tlExample.node[47].veinsmobility posx ETV
vector 206 tlExample.node[47].veinsmobility posy ETV
vector 207 tlExample.node[35].veinsmobility acceleration ETV
vector 208 tlExample.node[35].veinsmobility co2emission ETV
vector 209 tlExample.node[36].veinsmobility acceleration ETV
vector 210 tlExample.node[36].veinsmobility co2emission ETV
vector 211 tlExample.node[37].veinsmobility acceleration ETV
vector 212 tlExample.node[37].veinsmobility co2emission ETV
vector 213 tlExample.node[38].veinsmobility acceleration ETV
vector 214 tlExample.node[38].veinsmobility co2emission ETV
vector 215 tlExample.node[39].veinsmobility acceleration ETV
vector 216 tlExample.node[39].veinsmobility co2emission ETV
vector 217 tlExample.node[40].veinsmobility acceleration ETV
vector 218 tlExample.node[40].veinsmobility co2emission ETV
vector 219 tlExample.node[41].veinsmobility speed ETV
vector 220 tlExample.node[42].veinsmobility speed ETV
vector 221 tlExample.node[43].veinsmobility speed ETV
vector 222 tlExample.node[44].veinsmobility speed ETV
vector 223 tlExample.node[41].veinsmobility acceleration ETV
vector 224 tlExample.node[41].veinsmobility co2emission ETV
vector 225 tlExample.node[42].veinsmobility acceleration ETV
vector 226 tlExample.node[42].veinsmobility co2emission ETV
vector 227 tlExample.node[43].veinsmobility acceleration ETV
vector 228 tlExample.node[43].veinsmobility co2emission ETV
vector 229 tlExample.node[44].veinsmobility acceleration ETV
vector 230 tlExample.node[44].veinsmobility co2emission ETV
vector 231 tlExample.node[45].veinsmobility speed ETV
vector 232 tlExample.node[46].veinsmobility speed ETV
vector 233 tlExample.node[47].veinsmobility speed ETV
vector 234 tlExample.node[45].veinsmobility acceleration ETV
vector 235 tlExample.node[45].veinsmobility co2emission ETV
vector 236 tlExample.node[46].veinsmobility acceleration ETV
vector 237 tlExample.node[46].veinsmobility co2emission ETV
vector 238 tlExample.node[47].veinsmobility acceleration ETV
vector 239 tlExample.node[47].veinsmobility co2emission ETV
vector 240 tlExample.node[48].veinsmobility posx ETV
vector 241 tlExample.node[48].veinsmobility posy ETV
vector 242 tlExample.node[49].veinsmobility posx ETV
vector 243 tlExample.node[49].veinsmobility posy ETV
vector 244 tlExample.node[50].veinsmobility posx ETV
vector 245 tlExample.node[50].veinsmobility posy ETV
vector 246 tlExample.node[48].veinsmobility speed ETV
vector 247 tlExample.node[51].veinsmobility posx ETV
vector 248 tlExample.node[51].veinsmobility posy ETV
vector 249 tlExample.node[52].veinsmobility posx ETV
vector 250 tlExample.node[52].veinsmobility posy ETV
vector 251 tlExample.node[53].veinsmobility posx ETV
vector 252 tlExample.node[53].veinsmobility posy ETV
vector 253 tlExample.node[54].veinsmobility posx ETV
vector 254 tlExample.node[54].veinsmobility posy ETV
vector 255 tlExample.node[55].veinsmobility posx ETV
vector 256 tlExample.node[55].veinsmobility posy ETV
vector 257 tlExample.node[56].veinsmobility posx ETV
vector 258 tlExample.node[56].veinsmobility posy ETV
vector 259 tlExample.node[48].veinsmobility acceleration ETV
vector 260 tlExample.node[48].veinsmobility co2emission ETV
vector 261 tlExample.node[49].veinsmobility speed ETV
vector 262 tlExample.node[50].veinsmobility speed ETV
vector 263 tlExample.node[57].veinsmobility posx ETV
vector 264 tlExample.node[57].veinsmobility posy ETV
vector 265 tlExample.node[58].veinsmobility posx ETV
vector 266 tlExample.node[58].veinsmobility posy ETV
vector 267 tlExample.node[59].veinsmobility posx ETV
vector 268 tlExample.node[59].veinsmobility posy ETV
vector 269 tlExample.node[49].veinsmobility acceleration ETV
vector 270 tlExample.node[49].veinsmobility co2emission ETV
vector 271 tlExample.node[50].veinsmobility acceleration ETV
vector 272 tlExample.node[50].veinsmobility co2emission ETV
vector 273 tlExample.node[51].veinsmobility speed ETV
vector 274 tlExample.node[52].veinsmobility speed ETV
vector 275 tlExample.node[53].veinsmobility speed ETV
vector 276 tlExample.node[54].veinsmobility speed ETV
vector 277 tlExample.node[55].veinsmobility speed ETV
vector 278 tlExample.node[56].veinsmobility speed ETV
vector 279 tlExample.node[60].veinsmobility posx ETV
vector 280 tlExample.node[60].veinsmobility posy ETV
vector 281 tlExample.node[61].veinsmobility posx ETV
vector 282 tlExample.node[61].veinsmobility posy ETV
vector 283 tlExample.node[62].veinsmobility posx ETV
vector 284 tlExample.node[62].veinsmobility posy ETV
vector 285 tlExample.node[51].veinsmobility acceleration ETV
vector 286 tlExample.node[51].veinsmobility co2emission ETV
vector 287 tlExample.node[52].veinsmobility acceleration ETV
vector 288 tlExample.node[52].veinsmobility co2emission ETV
vector 289 tlExample.node[53].veinsmobility acceleration ETV
vector 290 tlExample.node[53].veinsmobility co2emission ETV
vector 291 tlExample.node[54].veinsmobility acceleration ETV
vector 292 tlExample.node[54].veinsmobility co2emission ETV
vector 293 tlExample.node[55].veinsmobility acceleration ETV
vector 294 tlExample.node[55].veinsmobility co2emission ETV
vector 295 tlExample.node[56].veinsmobility acceleration ETV
vector 296 tlExample.node[56].veinsmobility co2emission ETV
vector 297 tlExample.node[57].veinsmobility speed ETV
vector 298 tlExample.node[58].veinsmobility speed ETV
vector 299 tlExample.node[59].veinsmobility speed ETV
vector 300 tlExample.node[63].veinsmobility posx ETV
vector 301 tlExample.node[63].veinsmobility posy ETV
vector 302 tlExample.node[57].veinsmobility acceleration ETV
vector 303 tlExample.node[57].veinsmobility co2emission ETV
vector 304 tlExample.node[58].veinsmobility acceleration ETV
vector 305 tlExample.node[58].veinsmobility co2emission ETV
vector 306 tlExample.node[59].veinsmobility acceleration ETV
vector 307 tlExample.node[59].veinsmobility co2emission ETV
vector 308 tlExample.node[60].veinsmobility speed ETV
vector 309 tlExample.node[61].veinsmobility speed ETV
vector 310 tlExample.node[62].veinsmobility speed ETV
vector 311 tlExample.node[60].veinsmobility acceleration ETV
vector 312 tlExample.node[60].veinsmobility co2emission ETV
vector 313 tlExample.node[61].veinsmobility acceleration ETV
vector 314 tlExample.node[61].veinsmobility co2emission ETV
vector 315 tlExample.node[62].veinsmobility acceleration ETV
vector 316 tlExample.node[62].veinsmobility co2emission ETV
vector 317 tlExample.node[63].veinsmobility speed ETV
vector 318 tlExample.node[63].veinsmobility acceleration ETV
vector 319 tlExample.node[63].veinsmobility co2emission ETV
vector 320 tlExample.node[64].veinsmobility posx ETV
vector 321 tlExample.node[64].veinsmobility posy ETV
vector 322 tlExample.node[64].veinsmobility speed ETV
vector 323 tlExample.node[65].veinsmobility posx ETV
vector 324 tlExample.node[65].veinsmobility posy ETV
vector 325 tlExample.node[66].veinsmobility posx ETV
vector 326 tlExample.node[66].veinsmobility posy ETV
vector 327 tlExample.node[64].veinsmobility acceleration ETV
vector 328 tlExample.node[64].veinsmobility co2emission ETV
vector 329 tlExample.node[67].veinsmobility posx ETV
vector 330 tlExample.node[67].veinsmobility posy ETV
vector 331 tlExample.node[68].veinsmobility posx ETV
vector 332 tlExample.node[68].veinsmobility posy ETV
vector 333 tlExample.node[69].veinsmobility posx ETV
vector 334 tlExample.node[69].veinsmobility posy ETV
vector 335 tlExample.node[70].veinsmobility posx ETV
vector 336 tlExample.node[70].veinsmobility posy ETV
vector 337 tlExample.node[71].veinsmobility posx ETV
vector 338 tlExample.node[71].veinsmobility posy ETV
vector 339 tlExample.node[72].veinsmobility posx ETV
vector 340 tlExample.node[72].veinsmobility posy ETV
vector 341 tlExample.node[65].veinsmobility speed ETV
vector 342 tlExample.node[66].veinsmobility speed ETV
vector 343 tlExample.node[73].veinsmobility posx ETV
vector 344 tlExample.node[73].veinsmobility posy ETV
vector 345 tlExample.node[74].veinsmobility posx ETV
vector 346 tlExample.node[74].veinsmobility posy ETV
vector 347 tlExample.node[75].veinsmobility posx ETV
vector 348 tlExample.node[75].veinsmobility posy ETV
vector 349 tlExample.node[65].veinsmobility acceleration ETV
vector 350 tlExample.node[65].veinsmobility co2emission ETV
vector 351 tlExample.node[66].veinsmobility acceleration ETV
vector 352 tlExample.node[66].veinsmobility co2emission ETV
vector 353 tlExample.node[67].veinsmobility speed ETV
vector 354 tlExample.node[68].veinsmobility speed ETV
vector 355 tlExample.node[69].veinsmobility speed ETV
vector 356 tlExample.node[70].veinsmobility speed ETV
vector 357 tlExample.node[71].veinsmobility speed ETV
vector 358 tlExample.node[72].veinsmobility speed ETV
vector 359 tlExample.node[76].veinsmobility posx ETV
vector 360 tlExample.node[76].veinsmobility posy ETV
vector 361 tlExample.node[77].veinsmobility posx ETV
vector 362 tlExample.node[77].veinsmobility posy ETV
vector 363 tlExample.node[67].veinsmobility acceleration ETV
vector 364 tlExample.node[67].veinsmobility co2emission ETV
vector 365 tlExample.node[68].veinsmobility acceleration ETV
vector 366 tlExample.node[68].veinsmobility co2emission ETV
vector 367 tlExample.node[69].veinsmobility acceleration ETV
vector 368 tlExample.node[69].veinsmobility co2emission ETV
vector 369 tlExample.node[70].veinsmobility acceleration ETV
vector 370 tlExample.node[70].veinsmobility co2emission ETV
vector 371 tlExample.node[71].veinsmobility acceleration ETV
vector 372 tlExample.node[71].veinsmobility co2emission ETV
vector 373 tlExample.node[72].veinsmobility acceleration ETV
vector 374 tlExample.node[72].veinsmobility co2emission ETV
vector 375 tlExample.node[73].veinsmobility speed ETV
vector 376 tlExample.node[74].veinsmobility speed ETV
vector 377 tlExample.node[75].veinsmobility speed ETV
vector 378 tlExample.node[78].veinsmobility posx ETV
vector 379 tlExample.node[78].veinsmobility posy ETV
vector 380 tlExample.node[73].veinsmobility acceleration ETV
vector 381 tlExample.node[73].veinsmobility co2emission ETV
vector 382 tlExample.node[74].veinsmobility acceleration ETV
vector 383 tlExample.node[74].veinsmobility co2emission ETV
vector 384 tlExample.node[75].veinsmobility acceleration ETV
vector 385 tlExample.node[75].veinsmobility co2emission ETV
vector 386 tlExample.node[76].veinsmobility speed ETV
vector 387 tlExample.node[77].veinsmobility speed ETV
vector 388 tlExample.node[79].veinsmobility posx ETV
vector 389 tlExample.node[79].veinsmobility posy ETV
vector 390 tlExample.node[76].veinsmobility acceleration ETV
vector 391 tlExample.node[76].veinsmobility co2emission ETV
vector 392 tlExample.node[77].veinsmobility acceleration ETV
vector 393 tlExample.node[77].veinsmobility co2emission ETV
vector 394 tlExample.node[78].veinsmobility speed ETV
vector 395 tlExample.node[78].veinsmobility acceleration ETV
vector 396 tlExample.node[78].veinsmobility co2emission ETV
vector 397 tlExample.node[79].veinsmobility speed ETV
vector 398 tlExample.node[79].veinsmobility acceleration ETV
vector 399 tlExample.node[79].veinsmobility co2emission ETV
vector 400 tlExample.node[80].veinsmobility posx ETV
vector 401 tlExample.node[80].veinsmobility posy ETV
vector 402 tlExample.node[80].veinsmobility speed ETV
vector 403 tlExample.node[81].veinsmobility posx ETV
vector 404 tlExample.node[81].veinsmobility posy ETV
vector 405 tlExample.node[82].veinsmobility posx ETV
vector 406 tlExample.node[82].veinsmobility posy ETV
vector 407 tlExample.node[80].veinsmobility acceleration ETV
vector 408 tlExample.node[80].veinsmobility co2emission ETV
vector 409 tlExample.node[81].veinsmobility speed ETV
vector 410 tlExample.node[82].veinsmobility speed ETV
vector 411 tlExample.node[83].veinsmobility posx ETV
vector 412 tlExample.node[83].veinsmobility posy ETV
vector 413 tlExample.node[84].veinsmobility posx ETV
vector 414 tlExample.node[84].veinsmobility posy ETV
vector 415 tlExample.node[85].veinsmobility posx ETV
vector 416 tlExample.node[85].veinsmobility posy ETV
vector 417 tlExample.node[86].veinsmobility posx ETV
vector 418 tlExample.node[86].veinsmobility posy ETV
vector 419 tlExample.node[87].veinsmobility posx ETV
vector 420 tlExample.node[87].veinsmobility posy ETV
vector 421 tlExample.node[88].veinsmobility posx ETV
vector 422 tlExample.node[88].veinsmobility posy ETV
vector 423 tlExample.node[89].veinsmobility posx ETV
vector 424 tlExample.node[89].veinsmobility posy ETV
vector 425 tlExample.node[81].veinsmobility acceleration ETV
vector 426 tlExample.node[81].veinsmobility co2emission ETV
vector 427 tlExample.node[82].veinsmobility acceleration ETV
vector 428 tlExample.node[82].veinsmobility co2emission ETV
vector 429 tlExample.node[90].veinsmobility posx ETV
vector 430 tlExample.node[90].veinsmobility posy ETV
vector 431 tlExample.node[91].veinsmobility posx ETV
vector 432 tlExample.node[91].veinsmobility posy ETV
vector 433 tlExample.node[83].veinsmobility speed ETV
vector 434 tlExample.node[84].veinsmobility speed ETV
vector 435 tlExample.node[85].veinsmobility speed ETV
vector 436 tlExample.node[86].veinsmobility speed ETV
vector 437 tlExample.node[87].veinsmobility speed ETV
vector 438 tlExample.node[88].veinsmobility speed ETV
vector 439 tlExample.node[89].veinsmobility speed ETV
vector 440 tlExample.node[92].veinsmobility posx ETV
vector 441 tlExample.node[92].veinsmobility posy ETV
vector 442 tlExample.node[83].veinsmobility acceleration ETV
vector 443 tlExample.node[83].veinsmobility co2emission ETV
vector 444 tlExample.node[84].veinsmobility acceleration ETV
vector 445 tlExample.node[84].veinsmobility co2emission ETV
vector 446 tlExample.node[85].veinsmobility acceleration ETV
vector 447 tlExample.node[85].veinsmobility co2emission ETV
vector 448 tlExample.node[86].veinsmobility acceleration ETV
vector 449 tlExample.node[86].veinsmobility co2emission ETV
vector 450 tlExample.node[87].veinsmobility acceleration ETV
vector 451 tlExample.node[87].veinsmobility co2emission ETV
vector 452 tlExample.node[88].veinsmobility acceleration ETV
vector 453 tlExample.node[88].veinsmobility co2emission ETV
vector 454 tlExample.node[89].veinsmobility acceleration ETV
vector 455 tlExample.node[89].veinsmobility co2emission ETV
vector 456 tlExample.node[90].veinsmobility speed ETV
vector 457 tlExample.node[91].veinsmobility speed ETV
vector 458 tlExample.node[93].veinsmobility posx ETV
vector 459 tlExample.node[93].veinsmobility posy ETV
vector 460 tlExample.node[94].veinsmobility posx ETV
vector 461 tlExample.node[94].veinsmobility posy ETV
vector 462 tlExample.node[90].veinsmobility acceleration ETV
vector 463 tlExample.node[90].veinsmobility co2emission ETV
vector 464 tlExample.node[91].veinsmobility acceleration ETV
vector 465 tlExample.node[91].veinsmobility co2emission ETV
vector 466 tlExample.node[92].veinsmobility speed ETV
vector 467 tlExample.node[95].veinsmobility posx ETV
vector 468 tlExample.node[95].veinsmobility posy ETV
vector 469 tlExample.node[92].veinsmobility acceleration ETV
vector 470 tlExample.node[92].veinsmobility co2emission ETV
vector 471 tlExample.node[93].veinsmobility speed ETV
vector 472 tlExample.node[94].veinsmobility speed ETV
vector 473 tlExample.node[93].veinsmobility acceleration ETV
vector 474 tlExample.node[93].veinsmobility co2emission ETV
vector 475 tlExample.node[94].veinsmobility acceleration ETV
vector 476 tlExample.node[94].veinsmobility co2emission ETV
vector 477 tlExample.node[95].veinsmobility speed ETV
vector 478 tlExample.node[95].veinsmobility acceleration ETV
vector 479 tlExample.node[95].veinsmobility co2emission ETV
vector 480 tlExample.node[96].veinsmobility posx ETV
vector 481 tlExample.node[96].veinsmobility posy ETV
vector 482 tlExample.node[96].veinsmobility speed ETV
vector 483 tlExample.node[97].veinsmobility posx ETV
vector 484 tlExample.node[97].veinsmobility posy ETV
vector 485 tlExample.node[98].veinsmobility posx ETV
vector 486 tlExample.node[98].veinsmobility posy ETV
vector 487 tlExample.node[96].veinsmobility acceleration ETV
vector 488 tlExample.node[96].veinsmobility co2emission ETV
vector 489 tlExample.node[99].veinsmobility posx ETV
vector 490 tlExample.node[99].veinsmobility posy ETV
vector 491 tlExample.node[100].veinsmobility posx ETV
vector 492 tlExample.node[100].veinsmobility posy ETV
vector 493 tlExample.node[97].veinsmobility speed ETV
vector 494 tlExample.node[98].veinsmobility speed ETV
vector 495 tlExample.node[101].veinsmobility posx ETV
vector 496 tlExample.node[101].veinsmobility posy ETV
vector 497 tlExample.node[102].veinsmobility posx ETV
vector 498 tlExample.node[102].veinsmobility posy ETV
vector 499 tlExample.node[103].veinsmobility posx ETV
vector 500 tlExample.node[103].veinsmobility posy ETV
vector 501 tlExample.node[104].veinsmobility posx ETV
vector 502 tlExample.node[104].veinsmobility posy ETV
vector 503 tlExample.node[105].veinsmobility posx ETV
vector 504 tlExample.node[105].veinsmobility posy ETV
vector 505 tlExample.node[106].veinsmobility posx ETV
vector 506 tlExample.node[106].veinsmobility posy ETV
vector 507 tlExample.node[97].veinsmobility acceleration ETV
vector 508 tlExample.node[97].veinsmobility co2emission ETV
vector 509 tlExample.node[98].veinsmobility acceleration ETV
vector 510 tlExample.node[98].veinsmobility co2emission ETV
vector 511 tlExample.node[99].veinsmobility speed ETV
vector 512 tlExample.node[100].veinsmobility speed ETV
vector 513 tlExample.node[107].veinsmobility posx ETV
vector 514 tlExample.node[107].veinsmobility posy ETV
vector 515 tlExample.node[99].veinsmobility acceleration ETV
vector 516 tlExample.node[99].veinsmobility co2emission ETV
vector 517 tlExample.node[100].veinsmobility acceleration ETV
vector 518 tlExample.node[100].veinsmobility co2emission ETV
vector 519 tlExample.node[101].veinsmobility speed ETV
vector 520 tlExample.node[102].veinsmobility speed ETV
vector 521 tlExample.node[103].veinsmobility speed ETV
vector 522 tlExample.node[104].veinsmobility speed ETV
vector 523 tlExample.node[105].veinsmobility speed ETV
vector 524 tlExample.node[106].veinsmobility speed ETV
vector 525 tlExample.node[101].veinsmobility acceleration ETV
vector 526 tlExample.node[101].veinsmobility co2emission ETV
vector 527 tlExample.node[102].veinsmobility acceleration ETV
vector 528 tlExample.node[102].veinsmobility co2emission ETV
vector 529 tlExample.node[103].veinsmobility acceleration ETV
vector 530 tlExample.node[103].veinsmobility co2emission ETV
vector 531 tlExample.node[104].veinsmobility acceleration ETV
vector 532 tlExample.node[104].veinsmobility co2emission ETV
vector 533 tlExample.node[105].veinsmobility acceleration ETV
vector 534 tlExample.node[105].veinsmobility co2emission ETV
vector 535 tlExample.node[106].veinsmobility acceleration ETV
vector 536 tlExample.node[106].veinsmobility co2emission ETV
vector 537 tlExample.node[107].veinsmobility speed ETV
vector 538 tlExample.node[108].veinsmobility posx ETV
vector 539 tlExample.node[108].veinsmobility posy ETV
vector 540 tlExample.node[109].veinsmobility posx ETV
vector 541 tlExample.node[109].veinsmobility posy ETV
vector 542 tlExample.node[110].veinsmobility posx ETV
vector 543 tlExample.node[110].veinsmobility posy ETV
vector 544 tlExample.node[107].veinsmobility acceleration ETV
vector 545 tlExample.node[107].veinsmobility co2emission ETV
vector 546 tlExample.node[108].veinsmobility speed ETV
vector 547 tlExample.node[109].veinsmobility speed ETV
vector 548 tlExample.node[110].veinsmobility speed ETV
vector 549 tlExample.node[111].veinsmobility posx ETV
vector 550 tlExample.node[111].veinsmobility posy ETV
vector 551 tlExample.node[108].veinsmobility acceleration ETV
vector 552 tlExample.node[108].veinsmobility co2emission ETV
vector 553 tlExample.node[109].veinsmobility acceleration ETV
vector 554 tlExample.node[109].veinsmobility co2emission ETV
vector 555 tlExample.node[110].veinsmobility acceleration ETV
vector 556 tlExample.node[110].veinsmobility co2emission ETV
vector 557 tlExample.node[111].veinsmobility speed ETV
vector 558 tlExample.node[111].veinsmobility acceleration ETV
vector 559 tlExample.node[111].veinsmobility co2emission ETV
vector 560 tlExample.node[112].veinsmobility posx ETV
vector 561 tlExample.node[112].veinsmobility posy ETV
vector 562 tlExample.node[113].veinsmobility posx ETV
vector 563 tlExample.node[113].veinsmobility posy ETV
vector 564 tlExample.node[114].veinsmobility posx ETV
vector 565 tlExample.node[114].veinsmobility posy ETV
vector 566 tlExample.node[115].veinsmobility posx ETV
vector 567 tlExample.node[115].veinsmobility posy ETV
vector 568 tlExample.node[116].veinsmobility posx ETV
vector 569 tlExample.node[116].veinsmobility posy ETV
vector 570 tlExample.node[117].veinsmobility posx ETV
vector 571 tlExample.node[117].veinsmobility posy ETV
vector 572 tlExample.node[112].veinsmobility speed ETV
vector 573 tlExample.node[113].veinsmobility speed ETV
vector 574 tlExample.node[114].veinsmobility speed ETV
vector 575 tlExample.node[115].veinsmobility speed ETV
vector 576 tlExample.node[118].veinsmobility posx ETV
vector 577 tlExample.node[118].veinsmobility posy ETV
vector 578 tlExample.node[119].veinsmobility posx ETV
vector 579 tlExample.node[119].veinsmobility posy ETV
vector 580 tlExample.node[112].veinsmobility acceleration ETV
vector 581 tlExample.node[112].veinsmobility co2emission ETV
vector 582 tlExample.node[113].veinsmobility acceleration ETV
vector 583 tlExample.node[113].veinsmobility co2emission ETV
vector 584 tlExample.node[114].veinsmobility acceleration ETV
vector 585 tlExample.node[114].veinsmobility co2emission ETV
vector 586 tlExample.node[115].veinsmobility acceleration ETV
vector 587 tlExample.node[115].veinsmobility co2emission ETV
vector 588 tlExample.node[116].veinsmobility speed ETV
vector 589 tlExample.node[117].veinsmobility speed ETV
vector 590 tlExample.node[120].veinsmobility posx ETV
vector 591 tlExample.node[120].veinsmobility posy ETV
vector 592 tlExample.node[121].veinsmobility posx ETV
vector 593 tlExample.node[121].veinsmobility posy ETV
vector 594 tlExample.node[122].veinsmobility posx ETV
vector 595 tlExample.node[122].veinsmobility posy ETV
vector 596 tlExample.node[123].veinsmobility posx ETV
vector 597 tlExample.node[123].veinsmobility posy ETV
vector 598 tlExample.node[116].veinsmobility acceleration ETV
vector 599 tlExample.node[116].veinsmobility co2emission ETV
vector 600 tlExample.node[117].veinsmobility acceleration ETV
vector 601 tlExample.node[117].veinsmobility co2emission ETV
vector 602 tlExample.node[118].veinsmobility speed ETV
vector 603 tlExample.node[119].veinsmobility speed ETV
vector 604 tlExample.node[124].veinsmobility posx ETV
vector 605 tlExample.node[124].veinsmobility posy ETV
vector 606 tlExample.node[118].veinsmobility acceleration ETV
vector 607 tlExample.node[118].veinsmobility co2emission ETV
vector 608 tlExample.node[119].veinsmobility acceleration ETV
vector 609 tlExample.node[119].veinsmobility co2emission ETV
vector 610 tlExample.node[120].veinsmobility speed ETV
vector 611 tlExample.node[121].veinsmobility speed ETV
vector 612 tlExample.node[122].veinsmobility speed ETV
vector 613 tlExample.node[123].veinsmobility speed ETV
vector 614 tlExample.node[125].veinsmobility posx ETV
vector 615 tlExample.node[125].veinsmobility posy ETV
vector 616 tlExample.node[120].veinsmobility acceleration ETV
vector 617 tlExample.node[120].veinsmobility co2emission ETV
vector 618 tlExample.node[121].veinsmobility acceleration ETV
vector 619 tlExample.node[121].veinsmobility co2emission ETV
vector 620 tlExample.node[122].veinsmobility acceleration ETV
vector 621 tlExample.node[122].veinsmobility co2emission ETV
vector 622 tlExample.node[123].veinsmobility acceleration ETV
vector 623 tlExample.node[123].veinsmobility co2emission ETV
vector 624 tlExample.node[124].veinsmobility speed ETV
vector 625 tlExample.node[126].veinsmobility posx ETV
vector 626 tlExample.node[126].veinsmobility posy ETV
vector 627 tlExample.node[124].veinsmobility acceleration ETV
vector 628 tlExample.node[124].veinsmobility co2emission ETV
vector 629 tlExample.node[125].veinsmobility speed ETV
vector 630 tlExample.node[127].veinsmobility posx ETV
vector 631 tlExample.node[127].veinsmobility posy ETV
vector 632 tlExample.node[125].veinsmobility acceleration ETV
vector 633 tlExample.node[125].veinsmobility co2emission ETV
vector 634 tlExample.node[126].veinsmobility speed ETV
vector 635 tlExample.node[126].veinsmobility acceleration ETV
vector 636 tlExample.node[126].veinsmobility co2emission ETV
vector 637 tlExample.node[127].veinsmobility speed ETV
vector 638 tlExample.node[127].veinsmobility acceleration ETV
vector 639 tlExample.node[127].veinsmobility co2emission ETV
vector 640 tlExample.node[128].veinsmobility posx ETV
vector 641 tlExample.node[128].veinsmobility posy ETV
vector 642 tlExample.node[129].veinsmobility posx ETV
vector 643 tlExample.node[129].veinsmobility posy ETV
vector 644 tlExample.node[130].veinsmobility posx ETV
vector 645 tlExample.node[130].veinsmobility posy ETV
vector 646 tlExample.node[131].veinsmobility posx ETV
vector 647 tlExample.node[131].veinsmobility posy ETV
vector 648 tlExample.node[128].veinsmobility speed ETV
vector 649 tlExample.node[132].veinsmobility posx ETV
vector 650 tlExample.node[132].veinsmobility posy ETV
vector 651 tlExample.node[133].veinsmobility posx ETV
vector 652 tlExample.node[133].veinsmobility posy ETV
vector 653 tlExample.node[128].veinsmobility acceleration ETV
vector 654 tlExample.node[128].veinsmobility co2emission ETV
vector 655 tlExample.node[129].veinsmobility speed ETV
vector 656 tlExample.node[130].veinsmobility speed ETV
vector 657 tlExample.node[131].veinsmobility speed ETV
vector 658 tlExample.node[134].veinsmobility posx ETV
vector 659 tlExample.node[134].veinsmobility posy ETV
vector 660 tlExample.node[135].veinsmobility posx ETV
vector 661 tlExample.node[135].veinsmobility posy ETV
vector 662 tlExample.node[129].veinsmobility acceleration ETV
vector 663 tlExample.node[129].veinsmobility co2emission ETV
vector 664 tlExample.node[130].veinsmobility acceleration ETV
vector 665 tlExample.node[130].veinsmobility co2emission ETV
vector 666 tlExample.node[131].veinsmobility acceleration ETV
vector 667 tlExample.node[131].veinsmobility co2emission ETV
vector 668 tlExample.node[132].veinsmobility speed ETV
vector 669 tlExample.node[133].veinsmobility speed ETV
vector 670 tlExample.node[136].veinsmobility posx ETV
vector 671 tlExample.node[136].veinsmobility posy ETV
vector 672 tlExample.node[137].veinsmobility posx ETV
vector 673 tlExample.node[137].veinsmobility posy ETV
vector 674 tlExample.node[138].veinsmobility posx ETV
vector 675 tlExample.node[138].veinsmobility posy ETV
vector 676 tlExample.node[139].veinsmobility posx ETV
vector 677 tlExample.node[139].veinsmobility posy ETV
vector 678 tlExample.node[132].veinsmobility acceleration ETV
vector 679 tlExample.node[132].veinsmobility co2emission ETV
vector 680 tlExample.node[133].veinsmobility acceleration ETV
vector 681 tlExample.node[133].veinsmobility co2emission ETV
vector 682 tlExample.node[134].veinsmobility speed ETV
vector 683 tlExample.node[135].veinsmobility speed ETV
vector 684 tlExample.node[140].veinsmobility posx ETV
vector 685 tlExample.node[140].veinsmobility posy ETV
vector 686 tlExample.node[134].veinsmobility acceleration ETV
vector 687 tlExample.node[134].veinsmobility co2emission ETV
vector 688 tlExample.node[135].veinsmobility acceleration ETV
vector 689 tlExample.node[135].veinsmobility co2emission ETV
vector 690 tlExample.node[136].veinsmobility speed ETV
vector 691 tlExample.node[137].veinsmobility speed ETV
vector 692 tlExample.node[138].veinsmobility speed ETV
vector 693 tlExample.node[139].veinsmobility speed ETV
vector 694 tlExample.node[136].veinsmobility acceleration ETV
vector 695 tlExample.node[136].veinsmobility co2emission ETV
vector 696 tlExample.node[137].veinsmobility acceleration ETV
vector 697 tlExample.node[137].veinsmobility co2emission ETV
vector 698 tlExample.node[138].veinsmobility acceleration ETV
vector 699 tlExample.node[138].veinsmobility co2emission ETV
vector 700 tlExample.node[139].veinsmobility acceleration ETV
vector 701 tlExample.node[139].veinsmobility co2emission ETV
vector 702 tlExample.node[140].veinsmobility speed ETV
vector 703 tlExample.node[141].veinsmobility posx ETV
vector 704 tlExample.node[141].veinsmobility posy ETV
vector 705 tlExample.node[142].veinsmobility posx ETV
vector 706 tlExample.node[142].veinsmobility posy ETV
vector 707 tlExample.node[140].veinsmobility acceleration ETV
vector 708 tlExample.node[140].veinsmobility co2emission ETV
vector 709 tlExample.node[143].veinsmobility posx ETV
vector 710 tlExample.node[143].veinsmobility posy ETV
vector 711 tlExample.node[141].veinsmobility speed ETV
vector 712 tlExample.node[142].veinsmobility speed ETV
vector 713 tlExample.node[141].veinsmobility acceleration ETV
vector 714 tlExample.node[141].veinsmobility co2emission ETV
vector 715 tlExample.node[142].veinsmobility acceleration ETV
vector 716 tlExample.node[142].veinsmobility co2emission ETV
vector 717 tlExample.node[143].veinsmobility speed ETV
vector 718 tlExample.node[143].veinsmobility acceleration ETV
vector 719 tlExample.node[143].veinsmobility co2emission ETV
vector 720 tlExample.node[144].veinsmobility posx ETV
vector 721 tlExample.node[144].veinsmobility posy ETV
vector 722 tlExample.node[145].veinsmobility posx ETV
vector 723 tlExample.node[145].veinsmobility posy ETV
vector 724 tlExample.node[146].veinsmobility posx ETV
vector 725 tlExample.node[146].veinsmobility posy ETV
vector 726 tlExample.node[147].veinsmobility posx ETV
vector 727 tlExample.node[147].veinsmobility posy ETV
vector 728 tlExample.node[144].veinsmobility speed ETV
vector 729 tlExample.node[145].veinsmobility speed ETV
vector 730 tlExample.node[148].veinsmobility posx ETV
vector 731 tlExample.node[148].veinsmobility posy ETV
vector 732 tlExample.node[149].veinsmobility posx ETV
vector 733 tlExample.node[149].veinsmobility posy ETV
vector 734 tlExample.node[144].veinsmobility acceleration ETV
vector 735 tlExample.node[144].veinsmobility co2emission ETV
vector 736 tlExample.node[145].veinsmobility acceleration ETV
vector 737 tlExample.node[145].veinsmobility co2emission ETV
vector 738 tlExample.node[146].veinsmobility speed ETV
vector 739 tlExample.node[147].veinsmobility speed ETV
vector 740 tlExample.node[150].veinsmobility posx ETV
vector 741 tlExample.node[150].veinsmobility posy ETV
vector 742 tlExample.node[151].veinsmobility posx ETV
vector 743 tlExample.node[151].veinsmobility posy ETV
vector 744 tlExample.node[146].veinsmobility acceleration ETV
vector 745 tlExample.node[146].veinsmobility co2emission ETV
vector 746 tlExample.node[147].veinsmobility acceleration ETV
vector 747 tlExample.node[147].veinsmobility co2emission ETV
vector 748 tlExample.node[148].veinsmobility speed ETV
vector 749 tlExample.node[149].veinsmobility speed ETV
vector 750 tlExample.node[152].veinsmobility posx ETV
vector 751 tlExample.node[152].veinsmobility posy ETV
vector 752 tlExample.node[153].veinsmobility posx ETV
vector 753 tlExample.node[153].veinsmobility posy ETV
vector 754 tlExample.node[154].veinsmobility posx ETV
vector 755 tlExample.node[154].veinsmobility posy ETV
vector 756 tlExample.node[148].veinsmobility acceleration ETV
vector 757 tlExample.node[148].veinsmobility co2emission ETV
vector 758 tlExample.node[149].veinsmobility acceleration ETV
vector 759 tlExample.node[149].veinsmobility co2emission ETV
vector 760 tlExample.node[150].veinsmobility speed ETV
vector 761 tlExample.node[151].veinsmobility speed ETV
vector 762 tlExample.node[155].veinsmobility posx ETV
vector 763 tlExample.node[155].veinsmobility posy ETV
vector 764 tlExample.node[150].veinsmobility acceleration ETV
vector 765 tlExample.node[150].veinsmobility co2emission ETV
vector 766 tlExample.node[151].veinsmobility acceleration ETV
vector 767 tlExample.node[151].veinsmobility co2emission ETV
vector 768 tlExample.node[152].veinsmobility speed ETV
vector 769 tlExample.node[153].veinsmobility speed ETV
vector 770 tlExample.node[154].veinsmobility speed ETV
vector 771 tlExample.node[156].veinsmobility posx ETV
vector 772 tlExample.node[156].veinsmobility posy ETV
vector 773 tlExample.node[157].veinsmobility posx ETV
vector 774 tlExample.node[157].veinsmobility posy ETV
vector 775 tlExample.node[152].veinsmobility acceleration ETV
vector 776 tlExample.node[152].veinsmobility co2emission ETV
vector 777 tlExample.node[153].veinsmobility acceleration ETV
vector 778 tlExample.node[153].veinsmobility co2emission ETV
vector 779 tlExample.node[154].veinsmobility acceleration ETV
vector 780 tlExample.node[154].veinsmobility co2emission ETV
vector 781 tlExample.node[155].veinsmobility speed ETV
vector 782 tlExample.node[158].veinsmobility posx ETV
vector 783 tlExample.node[158].veinsmobility posy ETV
vector 784 tlExample.node[155].veinsmobility acceleration ETV
vector 785 tlExample.node[155].veinsmobility co2emission ETV
vector 786 tlExample.node[156].veinsmobility speed ETV
vector 787 tlExample.node[157].veinsmobility speed ETV
vector 788 tlExample.node[159].veinsmobility posx ETV
vector 789 tlExample.node[159].veinsmobility posy ETV
vector 790 tlExample.node[156].veinsmobility acceleration ETV
vector 791 tlExample.node[156].veinsmobility co2emission ETV
vector 792 tlExample.node[157].veinsmobility acceleration ETV
vector 793 tlExample.node[157].veinsmobility co2emission ETV
vector 794 tlExample.node[158].veinsmobility speed ETV
vector 795 tlExample.node[158].veinsmobility acceleration ETV
vector 796 tlExample.node[158].veinsmobility co2emission ETV
vector 797 tlExample.node[159].veinsmobility speed ETV
vector 798 tlExample.node[159].veinsmobility acceleration ETV
vector 799 tlExample.node[159].veinsmobility co2emission ETV
0	48932 22993 34 8107250 0.1 77 770 30.1 1154.1493120979 436100.67553542 334893795.7191
1	71925 15394 34 8107250 0.1 77 770 826.6 826.6 636481.99999999 526116021.2
2	87319 23008 34 8107250 0.1 77 770 2891.63035832 4019.9 2682765.1737085 9436185290.3496
3	110327 16164 34 8107250 0.1 77 770 2423.4 2423.4 1866018 4522108021.2
4	126491 22996 34 8107250 0.1 77 770 3048.5119228724 4019.9 2736709.678548 9791900817.3955
5	149487 16164 34 8107250 0.1 77 770 1623.4 1623.4 1250018 2029279221.2
6	165651 23007 34 8107250 0.1 77 770 3010.3162594364 4019.9 2725409.605984 9717749843.1109
7	188658 15394 34 8107250 0.1 77 770 823.4 823.4 634018.00000001 522050421.2
8	204052 16164 34 8107250 0.1 77 770 3223.4 3223.4 2482018 8000536821.2001
9	220216 22981 34 8107250 0.1 77 770 30.1 917.39629769329 352430.62335983 215316024.94396
10	243197 16934 34 8107250 0.1 77 770 2423.4 2423.4 1866018 4522108021.2
11	260131 23779 34 8107250 0.1 77 770 30.1 1021.8475373772 388397.27581026 264126083.51572
12	283910 16934 34 8107250 0.1 77 770 1623.4 1623.4 1250018 2029279221.2
13	300844 23772 34 8107250 0.1 77 770 30.1 1191.7371869375 447089.15422477 354299163.03887
14	324616 16164 34 8107250 0.1 77 770 823.4 823.4 634018.00000001 522050421.2
15	340780 23772 34 8107250 0.1 77 770 30.1 975.02941681706 373263.39406439 242334053.55589
16	364552 23761 34 8107250 0.1 77 770 30.1 1159.2620828612 436536.01493021 336654325.61988
17	388313 16934 34 8107250 0.1 77 770 1626.6 1626.6 1252482 2037287221.2
18	405247 23764 34 8107250 0.1 77 770 30.1 1220.342344479 459731.06129158 373251485.47712
19	429011 16934 34 8107250 0.1 77 770 2426.6 2426.6 1868482 4534058421.2
20	445945 23776 34 8107250 0.1 77 770 30.1 1185.5892431255 446251.40799079 351927553.07926
21	469721 16934 34 8107250 0.1 77 770 3226.6 3226.6 2484482 8016429621.2001
22	486655 16164 34 8107250 0.1 77 770 826.6 826.6 636481.99999999 526116021.2
23	502819 23771 34 8107250 0.1 77 770 3116.9843712703 4019.9 2759998.4842354 9948822302.9445
24	526590 16934 34 8107250 0.1 77 770 1626.6 1626.6 1252482 2037287221.2
25	543524 23761 34 8107250 0.1 77 770 3081.0778920193 4019.9 2748162.3935382 9869043021.3656
26	567285 16934 34 8107250 0.1 77 770 2426.6 2426.6 1868482 4534058421.2
27	584219 23767 34 8107250 0.1 77 770 3192.675079103 4019.9 2786637.8955611 10131399274.729
28	607986 16934 34 8107250 0.1 77 770 3226.6 3226.6 2484482 8016429621.2001
29	624920 23174 34 8107250 0.1 77 770 3180.4988375411 4019.9 2733682.1863384 9763928842.1424
30	648094 23758 34 8107250 0.1 77 770 2957.8775092232 4019.9 2703763.8057175 9571997377.5353
31	671852 16934 34 8107250 0.1 77 770 3223.4 3223.4 2482018 8000536821.2001
32	688786 23766 83 8107250 0.2 77 769 0.33653294104268 15.505118007373 11240.493120979 169355.24940743
33	712552 23767 83 8107250 0.2 77 769 0.31639939444372 15.636805550504 11282.6964168 171036.44579977
34	736319 23758 83 8107250 0.2 77 769 0.33922227667295 13.354969308522 9713.8807712759 125882.46878549
35	760077 23760 83 8107250 0.2 77 769 0.32448451905628 13.989328773372 10095.837405636 136739.91664529
36	783837 23767 83 8107250 0.2 77 769 0.32745497643598 12.149239011259 8872.9629769329 104803.31661886
37	807604 23746 83 8107250 0.2 77 769 0.31993887547287 13.666832095644 9917.4753737723 131559.45818493
38	831350 23756 83 8107250 0.2 77 769 0.34865034121205 16.127180223989 11616.371869375 181447.25170725
39	855106 23760 83 8107250 0.2 77 769 0.32450224827626 12.949021474976 9449.2941681706 119025.63284701
40	878866 23759 83 8107250 0.2 77 769 0.33573095413623 15.63178340552 11291.620828612 171244.79298538
41	902625 23764 83 8107250 0.2 77 769 0.33689109599916 16.432499789252 11902.42344479 189913.97780424
42	926389 23755 83 8107250 0.2 77 769 0.32078052474651 16.000346974581 11554.892431255 179193.17239559
43	950144 23760 83 8107250 0.2 77 769 0.32256586755277 12.349804325905 9029.1562872967 108455.02326876
44	973904 23749 83 8107250 0.2 77 769 0.34938784062862 12.882151323074 9388.2210798072 117600.98921019
45	997653 23745 83 8107250 0.2 77 769 0.33268894230947 11.276540675925 8272.2492089698 90769.318007839
46	1021398 22535 83 8107250 0.2 77 769 0 14.525942368643 8394.0116245889 113300.73323874
47	1043933 23748 83 8107250 0.2 77 769 0.33529359607841 14.607619908441 10620.224907768 150683.15623361
48	1067681 23990 148 8107250 0.3 77 768 -2.2 3.4417813275941 149.41574717083 1541.3166719696
49	1091671 20845 148 8107250 0.3 77 768 0.973 14.866089094271 2941.4820750792 19374.285295096
50	1112516 23796 148 8107250 0.3 77 768 -2.2 3.4325018783064 150.32592987641 1611.9019559253
51	1136312 20797 148 8107250 0.3 77 768 0.973 14.767428298197 2978.3954668968 20666.87184203
52	1157109 24006 148 8107250 0.3 77 768 -2.2 3.4739889053162 128.36811339728 1641.9809892491
53	1181115 20643 148 8107250 0.3 77 768 0.973 12.679056380872 2655.7002850028 15955.174123479
54	1201758 23966 148 8107250 0.3 77 768 -2.2 3.428096216403 133.62794857383 1662.6525382459
55	1225724 20732 148 8107250 0.3 77 768 0.973 13.562016681935 2743.4046484056 17405.428683079
56	1246456 23883 148 8107250 0.3 77 768 -2.2 3.4174040901708 115.73013511142 1641.947771612
57	1270339 20646 148 8107250 0.3 77 768 0.973 11.222949725092 2481.0140828017 13440.364536429
58	1290985 23882 148 8107250 0.3 77 768 -2.2 3.4757503411965 130.08891417957 1476.482839646
59	1314867 20806 148 8107250 0.3 77 768 0.973 12.481067282086 2611.0178238912 14906.63145
60	1335673 23974 148 8107250 0.3 77 768 -2.2 3.4631085712847 154.97375591573 1668.4810874988
61	1359647 20936 148 8107250 0.3 77 768 0.95928634882045 15.338890005195 3088.826094335 22308.916873169
62	1380583 24088 148 8107250 0.3 77 768 -2.2 3.4917190877022 124.79654062807 1531.5466417446
63	1404671 20709 148 8107250 0.3 77 768 0.973 12.437593917717 2521.9973302415 14308.802209392
64	1425380 23846 148 8107250 0.3 77 768 -2.2 3.4451007325973 150.30968239839 1580.1404327954
65	1449226 21003 148 8107250 0.3 77 768 0.97062950407803 15.044123714292 2957.5210390511 20094.420012838
66	1470229 23875 148 8107250 0.3 77 768 -2.2 3.4452725825831 158.04850764243 1689.3804357473
67	1494104 21018 148 8107250 0.3 77 768 0.92713783651767 15.321737820393 3128.4867807912 23183.724280085
68	1515122 24061 148 8107250 0.3 77 768 -2.2 3.4930708582979 155.09084363281 1654.8925029122
69	1539183 20789 148 8107250 0.3 77 768 0.973 15.185627767229 3048.6452251221 22097.415000213
70	1559972 23900 148 8107250 0.3 77 768 -2.2 3.4781380161876 119.39272211613 1601.7751375988
71	1583872 20630 148 8107250 0.3 77 768 0.973 11.998970566797 2486.8851958897 13543.566432122
72	1604502 24019 148 8107250 0.3 77 768 -2.2 3.4478280111216 123.3780541632 1520.8483758424
73	1628521 20684 148 8107250 0.3 77 768 0.973 11.763747145281 2518.3969325137 14169.351847429
74	1649205 23935 148 8107250 0.3 77 768 -2.2 3.4466824807449 106.92660230084 1615.574134818
75	1673140 20568 148 8107250 0.3 77 768 0.973 10.695145314053 2319.914077764 11751.18821917
76	1693708 22500 148 8107250 0.3 77 768 -3.0000000000028 3.482443259214 141.05127360676 2041.3775625054
77	1716208 20246 148 8107250 0.3 77 768 0.973 13.800262448358 2600.5509246424 16143.174074449
78	1736454 24036 148 8107250 0.3 77 768 -2.2 3.4966405196354 141.93098236722 1493.2188132334
79	1760490 20829 148 8107250 0.3 77 768 0.973 13.504650965918 2764.2760780807 16986.105224846
80	1781319 16488 6455 8107250 2.5 77 746 1623.4 1623.4 1211056.4 1966028959.76
81	1797807 23114 6455 8107250 2.5 77 746 30.1 884.40455080372 328124.77148507 193143846.59874
82	1820921 23113 6455 8107250 2.5 77 746 30.1 900.29324082035 335363.89365496 201068350.44834
83	1844034 16488 6455 8107250 2.5 77 746 2426.6 2426.6 1810243.6 4392737119.76
84	1860522 23119 6455 8107250 2.5 77 746 3120.8874301348 4019.9 2677255.1685967 9662268433.2228
85	1883641 16488 6455 8107250 2.5 77 746 3223.4 3223.4 2404656.4 7751169439.7601
86	1900129 23088 6637 8107250 2.6 77 745 30.1 938.20979147001 368866.50420191 242135902.4135
87	1923217 15724 6637 8107250 2.6 77 745 826.6 826.6 615816.99999999 509034332.2
88	1938941 23078 6637 8107250 2.6 77 745 3141.6236635568 4019.9 2682634.9249665 9711706802.7212
89	1962019 16469 6637 8107250 2.6 77 745 2423.4 2423.4 1805433 4375286332.2
90	1978488 23087 6637 8107250 2.6 77 745 3141.0368302039 4019.9 2681131.7836617 9700669198.0784
91	2001575 16469 6637 8107250 2.6 77 745 1623.4 1623.4 1209433 1963393532.2
92	2018044 23077 6637 8107250 2.6 77 745 3032.8763678927 4019.9 2642489.8913563 9438488043.1649
93	2041121 15724 6637 8107250 2.6 77 745 823.4 823.4 613433.00000001 505100732.2
94	2056845 16469 6637 8107250 2.6 77 745 3223.4 3223.4 2401433 7740779132.2001
95	2073314 22665 6637 8107250 2.6 77 745 30.1 823.38742085997 332908.19865829 196473643.90719
96	2095979 23081 6637 8107250 2.6 77 745 30.1 954.69811359356 353153.68040187 224416236.22777
97	2119060 16469 6637 8107250 2.6 77 745 1626.6 1626.6 1211817 1971141532.2
98	2135529 21645 6637 8107250 2.6 77 745 30.1 869.29205978212 387994.13953894 261152753.82244
99	2157174 16469 6637 8107250 2.6 77 745 3226.6 3226.6 2403817 7756155932.2001
100	2173643 16469 6637 8107250 2.6 77 745 826.6 826.6 615816.99999999 509034332.2
101	2190112 23824 6637 8107250 2.6 77 745 3137.8407052429 4019.9 2675486.4002763 9659600850.1506
102	2213936 17214 6637 8107250 2.6 77 745 1626.6 1626.6 1211817 1971141532.2
103	2231150 23830 6637 8107250 2.6 77 745 3102.4275362291 4019.9 2664154.0407317 9582942844.6026
104	2254980 17214 6637 8107250 2.6 77 745 2426.6 2426.6 1807817 4386848732.2
105	2272194 23832 6637 8107250 2.6 77 745 3212.2610037347 4019.9 2702092.476351 9843550786.7199
106	2296026 17214 6637 8107250 2.6 77 745 3226.6 3226.6 2403817 7756155932.2001
107	2313240 23842 6637 8107250 2.6 77 745 3200.8051303849 4019.9 2681420.8903806 9700434451.7162
108	2337082 23833 6637 8107250 2.6 77 745 0.31935789968469 12.133626039436 8543.0455080373 100546.58424906
109	2360915 23850 6637 8107250 2.6 77 745 0.3171506550035 12.297038568574 8701.9324082035 104001.40131249
110	2384765 23842 6637 8107250 2.6 77 745 0.31818512568367 12.768831106417 8990.1256986521 111441.49313994
111	2408607 17194 6858 8107250 2.7 77 744 2423.4 2423.4 1803009.6 4369413464.64
112	2425801 23795 6858 8107250 2.7 77 744 30.1 999.56397991137 370016.5431882 246854378.50114
113	2449596 16450 6858 8107250 2.7 77 744 823.4 823.4 612609.60000001 504422744.64
114	2466046 23712 6858 8107250 2.7 77 744 30.1 868.37559012764 345596.73132924 212186945.14587
115	2489758 24176 6858 8107250 2.7 77 744 -2.2 3.4608424662147 115.57104310371 1451.9198174596
116	2513934 20699 6858 8107250 2.7 77 744 0.973 11.475523079006 2305.9314782026 12266.508573302
117	2534633 23850 6858 8107250 2.7 77 744 -2.2 3.4994804466075 117.26025738295 1639.2863928167
118	2558483 20779 6858 8107250 2.7 77 744 0.973 11.7099044463 2431.3458052361 13579.170444411
119	2579262 24007 6858 8107250 2.7 77 744 -2.2 3.4895475078932 121.95187241287 1506.0691221794
120	2603269 21002 6858 8107250 2.7 77 744 0.973 12.161423627339 2435.4239596132 13472.927600245
121	2624271 23589 6858 8107250 2.7 77 744 0 14.561494482552 9081.0979147001 124002.78638748
122	2647860 23809 6858 8107250 2.7 77 744 0.31849501506076 12.551264307011 8782.7633644323 106826.63943189
123	2671669 23812 6858 8107250 2.7 77 744 0.32336710449192 12.517472371911 8788.6316979611 106746.6257023
124	2695481 23817 6858 8107250 2.7 77 744 0.34907761537121 15.298093935359 9870.2363210734 135135.95560425
125	2719298 23211 6858 8107250 2.7 77 744 0 13.640159899766 7931.2760241666 94049.544839114
126	2742509 23820 6858 8107250 2.7 77 744 0.32519741962547 13.127709597579 9245.9811359356 117934.75957229
127	2766329 21786 6858 8107250 2.7 77 744 0 16.52794185562 8387.5971919621 128076.1211871
128	2788115 23797 6858 8107250 2.7 77 744 0.32389990624739 13.263961493152 8820.592947571 106916.62956712
129	2811912 23809 6858 8107250 2.7 77 744 0.32438069230178 13.94735132443 9174.7246377088 115961.84051975
130	2835721 23813 6858 8107250 2.7 77 744 0.31595673589502 12.876165552898 8076.3899626529 90005.689591217
131	2859534 23803 6858 8107250 2.7 77 744 0.3353810047661 12.647405795506 8190.948696151 96449.922798559
132	2883337 23614 7908 8107250 2.8 77 743 -9 3.4999578668503 141.80787085365 2417.9942812987
133	2906951 21073 7908 8107250 2.8 77 743 0.973 13.538084751857 2675.354118855 16653.882753405
134	2928024 24026 7908 8107250 2.8 77 743 -2.2 3.4553976218449 120.79356305194 1454.1664890397
135	2952050 20914 7908 8107250 2.8 77 743 0.973 11.893354873604 2359.8887437521 12934.836709037
136	2972964 23984 7908 8107250 2.8 77 743 -2.2 3.3851077617146 119.5967688728 1571.2588074089
137	2996948 20828 7908 8107250 2.8 77 743 0.973 12.098047944644 2403.5301338878 13733.121032206
138	3017776 23368 7908 8107250 2.8 77 743 -2.2 3.4838627404533 134.10005469292 1829.0057396649
139	3041144 21009 7908 8107250 2.8 77 743 0.973 13.834644041722 2816.8968990759 18800.47208162
140	3062153 22862 7908 8107250 2.8 77 743 -57.289247391441 3.4865710453862 41.100760416934 5683.8281221587
141	3085015 20546 7908 8107250 2.8 77 743 0.973 12.795495881486 2411.2818529167 14232.640840568
142	3105561 24062 7908 8107250 2.8 77 743 -2.2 3.4986153095961 127.23351776612 1593.9242196293
143	3129623 20818 7908 8107250 2.8 77 743 0.973 12.446462521617 2546.3196043643 14999.406542424
144	3150441 21845 7908 8107250 2.8 77 743 -113.28900838895 3.4987267742399 129.72294994881 14795.466671306
145	3172286 20415 7908 8107250 2.8 77 743 0.91125180143287 16.052453738675 2653.0069270265 18381.972294455
146	3192701 23517 7908 8107250 2.8 77 743 -2.2 3.4955985498382 118.36827873641 1945.3887488908
147	3216218 20730 7908 8107250 2.8 77 743 0.973 13.019735214019 2607.888307576 16031.340537697
148	3236948 23581 7908 8107250 2.8 77 743 -2.2 3.4972094373079 123.16241158097 1954.9651334344
149	3260529 20583 7908 8107250 2.8 77 743 0.973 13.120156909738 2659.9697288457 17444.501981161
150	3281112 23570 7908 8107250 2.8 77 743 -2.2 3.4853686124552 108.25517902925 1740.357863409
151	3304682 20705 7908 8107250 2.8 77 743 0.973 12.560138514784 2350.5102889164 12788.309185022
152	3325387 23673 7908 8107250 2.8 77 743 -2.2 3.4868493592367 109.66140212379 1662.3088864114
153	3349060 20756 7908 8107250 2.8 77 743 0.973 11.918025898096 2326.13102561 12496.76302499
154	3369816 23787 7908 8107250 2.8 77 743 0.32031225478742 15.043963850002 9694.6397991137 130255.43779007
155	3393603 23648 7908 8107250 2.8 77 743 0 13.033695485872 8382.7559012764 102906.81795346
156	3417251 23520 8005 8107250 2.9 77 742 -2.2 3.4959745643511 131.41676388033 1917.0955994131
157	3440771 20767 8005 8107250 2.9 77 742 0.973 14.05386118701 2809.4211477916 19079.046484461
158	3461538 23759 8005 8107250 2.9 77 742 -9 3.4351049554534 124.55593027523 2093.545329993
159	3485297 20870 8005 8107250 2.9 77 742 0.973 12.728821736451 2454.946356265 13997.844905674
160	3506167 23122 15746 8107250 5 77 721 30.1 879.5432946534 318724.69206707 187203326.92065
161	3529289 16723 15746 8107250 5 77 721 2426.6 2426.6 1749578.6 4245527430.76
162	3546012 16002 15746 8107250 5 77 721 826.6 826.6 595978.59999999 492635910.76
163	3562014 23114 15746 8107250 5 77 721 3233.0855156001 4019.9 2603462.5909355 9446769133.7602
164	3585128 16723 15746 8107250 5 77 721 1626.6 1626.6 1172778.6 1907641670.76
165	3601851 23136 15746 8107250 5 77 721 3124.7569695384 4019.9 2590210.3135277 9357713392.6901
166	3624987 23096 16358 8107250 5.1 77 720 3177.1446689074 4019.9 2587766.8884221 9350949481.1421
167	3648083 15984 16358 8107250 5.1 77 720 823.4 823.4 592848.00000001 488151043.2
168	3664067 16682 16358 8078231 5.1 76.9 719 3223.4 3223.4 2317624.6 7470631135.6401
169	3680749 23073 16358 8078231 5.1 76.9 719 30.1 813.23474294417 316173.82259634 183199214.30425
170	3703822 16682 16358 8078231 5.1 76.9 719 1623.4 1623.4 1167224.6 1894872415.64
171	3720504 23068 16358 8078231 5.1 76.9 719 30.1 862.65884444072 310904.61129435 178994481.38427
172	3743572 23061 16358 8078231 5.1 76.9 719 30.1 827.42431980992 297782.90012692 164040422.65909
173	3766633 16682 16358 8078231 5.1 76.9 719 3226.6 3226.6 2319925.4 7485471295.6401
174	3783315 16682 16358 8078231 5.1 76.9 719 3226.6 3226.6 2319925.4 7485471295.6401
175	3799997 23053 16358 8078231 5.1 76.9 719 3217.9981055626 4019.9 2593281.4429239 9399083480.3167
176	3823050 23066 16358 8078231 5.1 76.9 719 3143.4564235877 4019.9 2586057.3258224 9350944814.6921
177	3846116 16682 16358 8078231 5.1 76.9 719 3223.4 3223.4 2317624.6 7470631135.6401
178	3862798 23106 16358 8107250 5.1 77 720 0.32605184398009 13.664360697044 8494.432946534 102872.76168918
179	3885904 22567 16358 8107250 5.1 77 720 0 12.613453272305 7868.1448439989 95183.039737332
180	3908471 23105 16358 8107250 5.1 77 720 0.31617990442319 13.224452533193 8951.4303046164 114695.62686077
181	3931576 16661 16467 8078231 5.2 76.9 718 2423.4 2423.4 1740001.2 4216718908.08
182	3948237 23037 16467 8078231 5.2 76.9 718 30.1 877.19186598492 313298.30727607 182917485.64271
183	3971274 15943 16467 8078231 5.2 76.9 718 823.4 823.4 591201.20000001 486795068.08
184	3987217 23047 16467 8078231 5.2 76.9 718 30.1 851.07438070004 328356.0883077 198102595.92189
185	4010264 23034 16467 8078231 5.2 76.9 718 30.1 905.64124541919 322463.61470672 194364051.51273
186	4033298 16661 16467 8078231 5.2 76.9 718 1626.6 1626.6 1167898.8 1899704188.08
187	4049959 16661 16467 8078231 5.2 76.9 718 2426.6 2426.6 1742298.8 4227862268.08
188	4066620 23011 16467 8078231 5.2 76.9 718 3233.0852094049 4019.9 2609500.8918752 9523310600.5032
189	4089631 22806 16467 8107250 5.2 77 719 -2.2 3.4507206173148 115.16316768838 1733.3634584628
190	4112437 20185 16467 8107250 5.2 77 719 0.973 12.031754842489 2465.6892903826 14291.399579697
191	4132622 22623 16467 8107250 5.2 77 719 -9 3.4794384924462 -3.1964553331723 1954.9361307738
192	4155245 19819 16467 8107250 5.2 77 719 0.973 11.733169054719 2208.6070546828 11870.829319338
193	4175064 23181 16467 8107250 5.2 77 719 -2.2 3.407737855101 122.98581858475 1484.7780207608
194	4198245 20292 16467 8107250 5.2 77 719 0.973 12.295599075224 2437.4116090374 14020.976801886
195	4218537 23090 16467 8107250 5.2 77 719 0.33009148751269 13.394908250019 8427.5533109257 105819.04061957
196	4241627 23077 16467 8078231 5.2 76.9 718 0.022638899935698 13.318468550703 7831.3474294417 93509.342656535
197	4264704 23025 16467 8078231 5.2 76.9 718 0.33384452149039 13.489802320978 8325.5884444072 99166.570041221
198	4287729 23046 16467 8078231 5.2 76.9 718 0.33209636995103 11.70339627967 7973.2431980992 90568.044554308
199	4310775 23039 16467 8078231 5.2 76.9 718 0.3304380429734 14.078210650084 8019.0189443742 95636.991893771
200	4333814 23062 16467 8078231 5.2 76.9 718 0.33344836639008 14.473411829092 8764.4357641235 110153.10817927
201	4356876 23010 16586 8078231 5.3 76.9 717 30.1 916.8558366912 342604.9902238 217614230.8082
202	4379886 15923 16586 8078231 5.3 76.9 717 826.6 826.6 592672.19999999 489902840.52
203	4395809 22989 16586 8078231 5.3 76.9 717 3164.0012944594 4019.9 2586737.405971 9379442833.9605
204	4418798 16640 16586 8078231 5.3 76.9 717 2423.4 2423.4 1737577.8 4210846040.52
205	4435438 22995 16586 8078231 5.3 76.9 717 3163.2477845417 4019.9 2585353.0070431 9369283793.0684
206	4458433 16640 16586 8078231 5.3 76.9 717 1623.4 1623.4 1163977.8 1889601560.52
207	4475073 22968 16586 8078231 5.3 76.9 717 -3.0000000000006 3.4873863863759 127.29097374202 1876.6672990934
208	4498041 20333 16586 8078231 5.3 76.9 717 0.973 12.85380981782 2428.8963016543 13796.493372872
209	4518374 22741 16586 8078231 5.3 76.9 717 -5.8166216332422 3.4722865934018 27.824691658925 2207.6421671952
210	4541115 20099 16586 8078231 5.3 76.9 717 0.973 12.108199087271 2340.8671864892 13622.527366239
211	4561214 22917 16586 8078231 5.3 76.9 717 -2.2 3.456012409064 116.9261204088 1646.1702345022
212	4584131 20101 16586 8078231 5.3 76.9 717 0.973 11.724393897514 2377.0006835931 13645.141067872
213	4604232 23163 16586 8078231 5.3 76.9 717 -2.2 3.4584167806897 112.53056576092 1505.6221061125
214	4627395 20094 16586 8078231 5.3 76.9 717 0.973 11.277405105889 2217.5361169898 11631.096524658
215	4647489 22712 16586 8078231 5.3 76.9 717 -2.2 3.4847285419237 98.628637350217 1738.0551816815
216	4670201 20060 16586 8078231 5.3 76.9 717 0.973 12.655840984179 2354.6521526417 13232.849704091
217	4690261 22775 16586 8078231 5.3 76.9 717 -2.2 3.4835648983717 124.62624195707 1804.7080269047
218	4713036 20165 16586 8078231 5.3 76.9 717 0.973 13.925728719382 2554.9356245373 16088.918627864
219	4733201 23013 16586 8078231 5.3 76.9 717 0.33848659425508 12.492615536604 8470.9186598492 102743.06711728
220	4756214 23005 16586 8078231 5.3 76.9 717 0.34472434845869 14.667367292427 8209.7438070004 101787.03021809
221	4779219 23020 16586 8078231 5.3 76.9 717 0.32514391807141 12.943766893307 8755.4124541919 109927.86602881
222	4802239 23008 16586 8078231 5.3 76.9 717 0.32439976469264 13.366090700142 7868.1479059514 88665.299772162
223	4825247 23207 16926 8078231 5.4 76.9 716 -2.2 3.4475000818493 118.1527074742 1403.2383104904
224	4848454 20214 16926 8078231 5.4 76.9 716 0.973 11.737392277407 2291.9064895459 12253.706145386
225	4868668 22670 16926 8078231 5.4 76.9 716 -2.3833935992889 3.4979572477847 113.24681404976 2104.7782032269
226	4891338 20030 16926 8078231 5.4 76.9 716 0.973 12.764203832324 2503.0120554846 15839.382800055
227	4911368 23170 16926 8078231 5.4 76.9 716 -2.2 3.4699554542312 124.97537070476 1475.464902483
228	4934538 20115 16926 8078231 5.4 76.9 716 0.973 12.268519212269 2395.2541080074 13574.179296365
229	4954653 22757 16926 8078231 5.4 76.9 716 -2.2 3.478448389098 109.97709040605 1675.2313731221
230	4977410 20216 16926 8078231 5.4 76.9 716 0.973 11.472219772304 2302.2638941031 12390.531827073
231	4997626 22974 16926 8078231 5.4 76.9 716 0.31519938481622 14.306025247086 8867.558366912 117787.53708543
232	5020600 22991 16926 8078231 5.4 76.9 716 0.32323223887361 13.769223184913 8558.9870554061 105335.6279026
233	5043591 22971 16926 8078231 5.4 76.9 716 0.32801639555022 13.902359668843 8566.522154583 105323.20704359
234	5066562 22547 18260 8078231 5.5 76.9 715 -2.2 3.4990461518755 135.00636842603 1835.3501696702
235	5089109 20201 18260 8078231 5.5 76.9 715 0.973 13.162044165199 2590.6924259227 16172.418431452
236	5109310 22778 18260 8078231 5.5 76.9 715 -2.2 3.4955369690804 120.30794246675 1734.0035601574
237	5132088 20084 18260 8078231 5.5 76.9 715 0.973 13.260051430981 2486.3717981295 14982.241661538
238	5152172 22861 18260 8078231 5.5 76.9 715 -2.2 3.4344230031038 121.1021086634 1724.2348222831
239	5175033 20066 18260 8078231 5.5 76.9 715 0.973 13.135275857471 2473.706689918 14865.352601676
240	5195099 15507 26794 8078231 7.4 76.9 696 826.6 826.6 575313.59999999 475554221.76
241	5210606 22374 26794 8078231 7.4 76.9 696 3240.6446053957 4019.9 2518780.6344024 9157819197.0696
242	5232980 16182 28139 8078231 7.5 76.9 695 3223.4 3223.4 2240263 7221263754.2001
243	5249162 22344 28139 8078231 7.5 76.9 695 30.1 804.17450683659 300508.43021379 170961330.72393
244	5271506 22351 28139 8078231 7.5 76.9 695 30.1 807.26796289802 282588.99857035 152207418.09353
245	5293857 16182 28139 8078231 7.5 76.9 695 3226.6 3226.6 2242487 7235608554.2001
246	5310039 22395 28139 8078231 7.5 76.9 695 0.062581251999077 12.853500680405 7792.5539460429 94872.101198802
247	5332434 16161 28471 8078231 7.6 76.9 694 1623.4 1623.4 1126639.6 1828986726.64
248	5348595 22311 28471 8078231 7.6 76.9 694 30.1 842.04233941692 294892.3387857 166166505.78588
249	5370906 15467 28471 8078231 7.6 76.9 694 823.4 823.4 571439.60000001 470523366.64
250	5386373 22322 28471 8078231 7.6 76.9 694 30.1 834.90937167238 311781.97418046 184769290.84447
251	5408695 22303 28471 8078231 7.6 76.9 694 30.1 718.00822871105 252671.97744289 120915553.73744
252	5430998 16161 28471 8078231 7.6 76.9 694 2426.6 2426.6 1684060.4 4086540966.64
253	5447159 16161 28471 8078231 7.6 76.9 694 1626.6 1626.6 1128860.4 1836204326.64
254	5463320 22336 28471 8078231 7.6 76.9 694 3218.4061007624 4019.9 2523478.0108555 9215786885.7821
255	5485656 16161 28471 8078231 7.6 76.9 694 2426.6 2426.6 1684060.4 4086540966.64
256	5501817 22317 28471 8078231 7.6 76.9 694 3252.701487431 4019.9 2527276.913015 9239272501.9289
257	5524134 22076 28471 8078231 7.6 76.9 694 3233.201 4019.9 2503644.1855561 9076066284.8183
258	5546210 16161 28471 8078231 7.6 76.9 694 3223.4 3223.4 2237039.6 7210873446.6401
259	5562371 22156 28471 8078231 7.6 76.9 694 -2.8055570125976 3.4745922659058 -2.6716583406462 1783.5839301794
260	5584527 19348 28471 8078231 7.6 76.9 694 0.973 12.489934796712 2223.4878376861 12674.822002191
261	5603875 22364 28471 8078231 7.6 76.9 694 0.31712954941089 14.623089699807 7740.7450683659 93523.908326566
262	5626239 22320 28471 8078231 7.6 76.9 694 0.32920728308964 12.679920426485 7771.6796289802 89236.047034849
263	5648559 22284 28826 8078231 7.7 76.9 693 3196.1122659658 4019.9 2496227.9933969 9037521875.4937
264	5670843 15447 28826 8078231 7.7 76.9 693 823.4 823.4 570616.20000001 469845379.08
265	5686290 16140 28826 8078231 7.7 76.9 693 2423.4 2423.4 1679416.2 4069897219.08
266	5702430 22289 28826 8078231 7.7 76.9 693 30.1 856.31193200823 297187.54433214 169816971.2516
267	5724719 16140 28826 8078231 7.7 76.9 693 3226.6 3226.6 2236033.8 7214786659.0801
268	5740859 22298 28826 8078231 7.7 76.9 693 3235.2812245128 4019.9 2513027.2224662 9154008311.2879
269	5763157 21928 28826 8078231 7.7 76.9 693 -3.0062782640378 3.4618838181 18.591761809588 1942.6242786469
270	5785085 19264 28826 8078231 7.7 76.9 693 0.973 13.350713712742 2275.0957384394 13681.394485603
271	5804349 22029 28826 8078231 7.7 76.9 693 -2.2 3.4989037207561 110.86023731989 1819.6224724764
272	5826378 19273 28826 8078231 7.7 76.9 693 0.973 11.941496442765 2335.3225609575 13850.101230968
273	5845651 22317 28826 8078231 7.7 76.9 693 0.31724697771715 14.27534590643 8119.4233941692 97975.743706375
274	5867968 22281 28826 8078231 7.7 76.9 693 0.32313058579457 15.647140757518 8048.0937167238 100914.09619293
275	5890249 22291 28826 8078231 7.7 76.9 693 0.31757946927217 10.405582072491 6879.0822871105 69586.868448679
276	5912540 22320 28826 8078231 7.7 76.9 693 0.33818045743625 12.259183871494 8014.9389923761 95170.484979433
277	5934860 22306 28826 8078231 7.7 76.9 693 0.32011971281259 13.665671943222 7671.9851256895 87150.322893985
278	5957166 21839 28826 8078231 7.7 76.9 693 0 14.171835126784 7866.99 99046.47577399
279	5979005 21897 30401 8078231 7.8 76.9 692 30.1 816.799 310856.21045338 187019871.95603
280	6000902 15427 30401 8078231 7.8 76.9 692 826.6 826.6 572007.19999999 472821151.52
281	6016329 22249 30401 8078231 7.8 76.9 692 3250.4688404828 4019.9 2526817.9876384 9263433976.2716
282	6038578 16119 30401 8078231 7.8 76.9 692 1623.4 1623.4 1123392.8 1823715871.52
283	6054697 22257 30401 8078231 7.8 76.9 692 30.1 884.22331227019 305462.05219413 180376723.55991
284	6076954 16119 30401 8078231 7.8 76.9 692 1626.6 1626.6 1125607.2 1830912671.52
285	6093073 21860 30401 8078231 7.8 76.9 692 -2.2 3.4799650121713 116.89845510522 1727.0604750494
286	6114933 19587 30401 8078231 7.8 76.9 692 0.973 12.449754240409 2383.4239427758 14076.06502665
287	6134520 21766 30401 8078231 7.8 76.9 692 -2.2 3.498106256593 103.17699056506 1866.7683889559
288	6156286 19396 30401 8078231 7.8 76.9 692 0.973 13.842875204426 2381.7067684244 14911.650112324
289	6175682 22529 30401 8078231 7.8 76.9 692 -2.2 3.49817868229 97.475773144248 1399.3814087886
290	6198211 19384 30401 8078231 7.8 76.9 692 0.973 10.281388773608 1956.5527953977 8991.6089134923
291	6217595 22436 30401 8078231 7.8 76.9 692 -2.2 3.4984712788137 117.87137394069 1430.5468787758
292	6240031 19570 30401 8078231 7.8 76.9 692 0.973 11.713791393358 2198.7885795768 11918.605802485
293	6259601 21970 30401 8078231 7.8 76.9 692 -2.2 3.4963546403627 107.06533853805 1779.7811606702
294	6281571 19467 30401 8078231 7.8 76.9 692 0.973 11.759143445327 2294.5351078493 12937.789078124
295	6301038 21623 30401 8078231 7.8 76.9 692 -9 3.4957925793617 -3.3605552627587 2059.3252073364
296	6322661 19177 30401 8078231 7.8 76.9 692 0.973 12.84122023938 2292.6526997818 13772.077965923
297	6341838 22275 30401 8078231 7.8 76.9 692 0.33722448984394 13.537516836998 8237.8773403417 103919.91373644
298	6364113 22273 30401 8078231 7.8 76.9 692 0.33064910912653 13.826374423522 8262.1193200823 101432.23369968
299	6386386 22268 30401 8078231 7.8 76.9 692 0.34019140817109 12.632906810515 7846.1877548716 92900.909962301
300	6408654 22248 30557 8078231 7.9 76.9 691 3185.0162418811 4019.9 2498242.3473196 9075585912.6027
301	6430902 16098 30557 8078231 7.9 76.9 691 2423.4 2423.4 1674569.4 4058151483.96
302	6447000 21967 30557 8078231 7.9 76.9 691 -2.2 3.4561362513341 119.69245706868 1727.693855504
303	6468967 19447 30557 8078231 7.9 76.9 691 0.973 13.189127676465 2367.4446293654 14203.142456006
304	6488414 22143 30557 8078231 7.9 76.9 691 -2.2 3.495198053075 120.38744455152 1675.7959102945
305	6510557 19399 30557 8078231 7.9 76.9 691 0.973 12.388918244919 2381.0415854772 14344.467809594
306	6529956 22170 30557 8078231 7.9 76.9 691 -2.2 3.4419597291627 92.027797534771 1553.664298006
307	6552126 19405 30557 8078231 7.9 76.9 691 0.973 11.800541518096 2200.8239175748 11983.595168204
308	6571531 21609 30557 8078231 7.9 76.9 691 0 14.101375646938 7866.99 103038.53175725
309	6593140 22242 30557 8078231 7.9 76.9 691 0.33814091622946 11.809619969365 7694.3115951716 87988.629970989
310	6615382 22262 30557 8078231 7.9 76.9 691 0.32389900240116 13.700122782251 8541.2331227019 108739.31239271
311	6637644 21487 30717 8078231 8 76.9 690 -9 3.4648289387114 -3.4764836584685 1806.3206258257
312	6659131 19110 30717 8078231 8 76.9 690 0.973 13.567694309958 2209.2933759401 12760.979790748
313	6678241 22422 30717 8078231 8 76.9 690 -2.2 3.4939388445346 111.50368955921 1394.1202986301
314	6700663 19468 30717 8078231 8 76.9 690 0.973 11.776012724237 2129.9532597688 11009.743320047
315	6720131 21968 30717 8078231 8 76.9 690 -2.2 3.4985066726804 124.59784778775 1690.0786115247
316	6742099 19532 30717 8078231 8 76.9 690 0.973 13.051626450814 2456.3221476645 15165.193783601
317	6761631 22215 30717 8078231 8 76.9 690 0.33730158800725 14.928762047261 8348.8375811891 104430.45152875
318	6783846 21874 31625 8078231 8.1 76.9 689 -2.2 3.4955927167321 121.50714774804 1811.6062659181
319	6805720 19360 31625 8078231 8.1 76.9 689 0.973 14.210095114015 2463.1144501089 15991.364858284
320	6825080 15031 42497 8078231 9.8 76.9 672 826.6 826.6 555475.19999999 459155800.32
321	6840111 21679 42497 8078231 9.8 76.9 672 3258.7656202869 4019.9 2450799.9226066 8974110630.3591
322	6861790 21628 42659 8078231 9.9 76.9 671 0.32415744155762 12.211823737778 7611.3437971312 89073.576095219
323	6883418 21605 42838 8078231 10 76.9 670 30.1 699.23173703631 238772.56619034 111542535.14377
324	6905023 15661 42838 8078231 10 76.9 670 2426.6 2426.6 1625822 3945219665.2
325	6920684 21594 42838 8078231 10 76.9 670 30.1 787.19639184994 267443.01127512 140849758.64852
[...]
597	16327044 1631 8107250 9165746 77 81.9 50 3315.202159224 3370.4869499507 167142.64218132 558746487.8002
598	16328675 1633 8107250 9165746 77 81.9 50 -2.2 3.1916492223972 1.2666219494765 107.93715404317
599	16330308 1377 8107250 9165746 77 81.9 50 0.973 11.651969678339 169.04331819016 1033.7767597251
600	16331685 1592 8107250 9165746 77 81.9 50 -2.2 3.2685374652098 -2.138519015832 134.25761642194
601	16333277 1379 8107250 9165746 77 81.9 50 0.973 10.070262074007 152.91855312065 822.98309580857
602	16334656 1639 8107250 9165746 77 81.9 50 7.8827857757422 11.883104776269 539.04673552889 5869.007131487
603	16336295 1636 8107250 9165746 77 81.9 50 10.767197309572 11.10629965161 546.79015845897 5980.1071682598
604	16337931 1633 8107250 9165746 77 81.9 50 3207.1483934238 3268.0083394661 161881.14370962 524126176.6642
605	16339564 1190 8107250 9165746 77 81.9 50 2423.4 2423.4 121170 293643378
606	16340754 1445 8107250 9165746 77 81.9 50 -2.2 3.1742467680015 -28.053064165476 161.66748079255
607	16342199 1329 8107250 9165746 77 81.9 50 0.973 10.564716148968 134.59778038197 760.16386413465
608	16343528 1652 8107250 9165746 77 81.9 50 -2.2 2.8565285663353 -1.9245980642736 77.215568345669
609	16345180 1419 8107250 9165746 77 81.9 50 0.973 9.4169038256911 135.48637512906 613.49703118083
610	16346599 1639 8107250 9165746 77 81.9 50 0.9111174957907 5.7963621713862 145.07169462627 517.72755754772
611	16348238 1632 8107250 9165746 77 81.9 50 10.327673686007 12.074677545952 565.2874308227 6409.39369185
612	16349870 1639 8107250 9165746 77 81.9 50 9.6741932243308 10.007195915011 491.84947986304 4838.7370501757
613	16351509 1639 8107250 9165746 77 81.9 50 11.045691240248 11.520374802885 564.2819774894 6368.9532845606
614	16353148 1633 8107250 9165746 77 81.9 50 3273.3856287557 3330.273933112 165090.2735923 545110029.30049
615	16354781 1190 8107250 9165746 77 81.9 50 1623.4 1623.4 81170 131771378
616	16355971 1578 8107250 9165746 77 81.9 50 -2.2 1.3453871585487 -49.595629284426 96.149623666838
617	16357549 1238 8107250 9165746 77 81.9 50 0.973 2.1923148122005 53.990767501899 61.942657796817
618	16358787 1633 8107250 9165746 77 81.9 50 -2.2 2.7876888336614 -12.921994015328 98.481745729502
619	16360420 1338 8107250 9165746 77 81.9 50 0.973 9.9574441195988 130.60446406146 647.67808296024
620	16361758 1654 8107250 9165746 77 81.9 50 -2.2 2.8609864479397 -1.5132229786832 67.001007472188
621	16363412 1438 8107250 9165746 77 81.9 50 0.973 8.5843763410591 121.96974827016 467.39860238057
622	16364850 1645 8107250 9165746 77 81.9 50 -2.2 3.0617229533382 0.79779340260093 131.35715951802
623	16366495 1376 8107250 9165746 77 81.9 50 0.973 10.25231191128 165.69969640226 1008.1600892107
624	16367871 1638 8107250 9165746 77 81.9 50 12.241187863562 12.695827299608 620.94171583648 7711.953209316
625	16369509 1190 8107250 9165746 77 81.9 50 1623.4 1623.4 81170 131771378
626	16370699 1634 8107250 9165746 77 81.9 50 760.64837154616 819.33914904852 39498.582869828 31217763.97439
627	16372333 1643 8107250 9165746 77 81.9 50 -2.2 3.1135026980192 3.0057754070261 83.869511832333
628	16373976 1447 8107250 9165746 77 81.9 50 0.973 11.385781100606 150.97971568691 876.4179991732
629	16375423 1638 8107250 9165746 77 81.9 50 11.363607291832 11.922582842136 580.66254694949 6744.1481414983
630	16377061 1634 8107250 9165746 77 81.9 50 622.78138171324 673.99616275498 32419.966376735 21032434.932661
631	16378695 1140 8107250 9165746 77 81.9 50 826.6 826.6 41330 34163378
632	16379835 1620 8107250 9165746 77 81.9 50 -2.2 3.123590784849 -2.5648149746738 105.06931812212
633	16381455 1377 8107250 9165746 77 81.9 50 0.973 10.73150447216 149.08842951473 851.75515741144
634	16382832 1635 8107250 9165746 77 81.9 50 11.643579275943 12.323990300497 598.98737660188 7176.6867658592
635	16384467 1636 8107250 9165746 77 81.9 50 -2.2 3.4591578198597 0.78994273074066 100.79998078301
636	16386103 1427 8107250 9165746 77 81.9 50 0.973 11.842711981477 163.08918204488 880.8732670785
637	16387530 1636 8107250 9165746 77 81.9 50 10.270990658578 10.612906813997 522.51689917681 5460.9625453927
638	16389166 1635 8107250 9165746 77 81.9 50 -2.2 3.2153313423041 -0.92359176883473 95.67691660735
639	16390801 1427 8107250 9165746 77 81.9 50 0.973 9.9491745478473 142.048325722 647.28992393473
640	16392228 1633 8107250 9165746 77 81.9 50 578.05491544433 626.52913911756 30114.280563504 18147597.551667
641	16393861 1190 8107250 9165746 77 81.9 50 1626.6 1626.6 81330 132291378
642	16395051 1635 8107250 9165746 77 81.9 50 695.14039451149 754.10675417041 36232.883460861 26271491.485669
643	16396686 1190 8107250 9165746 77 81.9 50 3226.6 3226.6 161330 520547378
644	16397876 1140 8107250 9165746 77 81.9 50 826.6 826.6 41330 34163378
645	16399016 1629 8107250 9165746 77 81.9 50 3403.7979005914 3453.736276049 171438.75533477 587835736.96442
646	16400645 1190 8107250 9165746 77 81.9 50 1626.6 1626.6 81330 132291378
647	16401835 1634 8107250 9165746 77 81.9 50 3448.5161288996 3494.2599547334 173570.48928877 602543354.60628
648	16403469 1634 8107250 9165746 77 81.9 50 9.6450041780262 10.179908920067 494.45153006322 4890.557899632
649	16405103 1190 8107250 9165746 77 81.9 50 2423.4 2423.4 121170 293643378
650	16406293 1632 8107250 9165746 77 81.9 50 749.97589234707 811.64011302387 39040.035463413 30498934.675589
651	16407925 1637 8107250 9165746 77 81.9 50 3365.4397218368 3419.0076491103 169609.1165368 575357492.25598
652	16409562 1190 8107250 9165746 77 81.9 50 3223.4 3223.4 161170 519515378
653	16410752 1603 8107250 9165746 77 81.9 50 -2.2 3.4728364951872 2.9300282325699 119.71313880238
654	16412355 1430 8107250 9165746 77 81.9 50 0.973 10.050196341034 148.13573122155 747.60021610438
655	16413785 1637 8107250 9165746 77 81.9 50 11.864171262596 12.275764192321 601.65723605119 7240.3690282536
656	16415422 1637 8107250 9165746 77 81.9 50 9.9889386875857 10.486770974388 509.47053459317 5191.942497763
657	16417059 1634 8107250 9165746 77 81.9 50 9.0531464635753 9.6198540612337 466.66084224735 4356.480778816
658	16418693 1632 8107250 9165746 77 81.9 50 625.29919403049 675.52280775824 32519.765237182 21161639.358383
659	16420325 1190 8107250 9165746 77 81.9 50 2426.6 2426.6 121330 294419378
660	16421515 1190 8107250 9165746 77 81.9 50 3226.6 3226.6 161330 520547378
661	16422705 1633 8107250 9165746 77 81.9 50 3300.5089274461 3360.4555507282 166521.33277919 554602678.36118
662	16424338 1629 8107250 9165746 77 81.9 50 -2.2 2.8629536161898 1.6173332068291 95.536664083911
663	16425967 1417 8107250 9165746 77 81.9 50 0.973 10.245329184571 159.56509294577 870.2985415513
664	16427384 1609 8107250 9165746 77 81.9 50 -2.2 3.4411938234698 0.26407785121279 116.44139599354
665	16428993 1399 8107250 9165746 77 81.9 50 0.973 10.419388010754 142.27859750574 770.69309948323
666	16430392 1583 8107250 9165746 77 81.9 50 -2.2 3.4196680989116 3.125977805841 134.91693470803
667	16431975 1419 8107250 9165746 77 81.9 50 0.973 9.5553028039904 151.04873293519 755.76827062632
668	16433394 1635 8107250 9165746 77 81.9 50 12.304299076715 12.833999145424 629.29726847664 7921.1647671089
669	16435029 1632 8107250 9165746 77 81.9 50 10.669463853848 11.154377088706 546.65050561514 5977.3814343086
670	16436661 1634 8107250 9165746 77 81.9 50 3266.6443160208 3288.6319234145 163788.50211694 536535565.75642
671	16438295 1140 8107250 9165746 77 81.9 50 823.4 823.4 41170 33899378
672	16439435 1190 8107250 9165746 77 81.9 50 3223.4 3223.4 161170 519515378
673	16440625 1631 8107250 9165746 77 81.9 50 684.36022893657 740.22475556741 35649.861864045 25431881.99418
674	16442256 1140 8107250 9165746 77 81.9 50 823.4 823.4 41170 33899378
675	16443396 1633 8107250 9165746 77 81.9 50 572.72824919315 620.89313754482 29841.677315929 17820554.195083
676	16445029 1190 8107250 9165746 77 81.9 50 2426.6 2426.6 121330 294419378
677	16446219 1631 8107250 9165746 77 81.9 50 3335.0862768728 3390.3367814895 168135.2270729 565402301.61657
678	16447850 1601 8107250 9165746 77 81.9 50 -2.2 2.9304320202209 1.8245052445281 118.50022849679
679	16449451 1389 8107250 9165746 77 81.9 50 0.973 10.966733132199 172.80348385386 1123.2225058692
680	16450840 1605 8107250 9165746 77 81.9 50 -2.2 3.0717566251988 -0.33082487174869 106.06513219894
681	16452445 1424 8107250 9165746 77 81.9 50 0.973 10.033804387027 150.01037780329 774.49404204963
682	16453869 1636 8107250 9165746 77 81.9 50 9.9299189478623 10.533541507459 512.29894773754 5249.9913901146
683	16455505 1638 8107250 9165746 77 81.9 50 11.833738660368 12.427313128357 611.61562190092 7482.0973535112
684	16457143 1626 8107250 9165746 77 81.9 50 3317.1543826808 3376.1114632622 167330.78017969 560006852.86563
685	16458769 1190 8107250 9165746 77 81.9 50 2423.4 2423.4 121170 293643378
686	16459959 1611 8107250 9165746 77 81.9 50 -2.2 3.4446538096527 1.6052829027393 127.78121379847
687	16461570 1439 8107250 9165746 77 81.9 50 0.973 10.364020766273 155.47091353473 829.40810654212
688	16463009 1682 8107250 9165746 77 81.9 50 -2.2 2.8724422552623 -2.7399522677404 70.342120544057
689	16464691 1416 8107250 9165746 77 81.9 50 0.973 10.489706005213 138.27353321716 682.64869796137
690	16466107 1631 8107250 9165746 77 81.9 50 2.3585829957434 7.2419653349336 227.11803927143 1129.006669182
691	16467738 1635 8107250 9165746 77 81.9 50 10.448036914452 12.091828456019 570.3793642833 6521.4550186799
692	16469373 1636 8107250 9165746 77 81.9 50 9.5990983127243 10.056106417553 491.32628437518 4828.6336467297
693	16471009 1637 8107250 9165746 77 81.9 50 10.967153433451 11.613689988575 563.79921752711 6358.3203278876
694	16472646 1556 8107250 9165746 77 81.9 50 -2.2 1.3595790740267 -51.033823391902 106.3106889535
695	16474202 1249 8107250 9165746 77 81.9 50 0.973 3.1866040034081 59.452132598848 83.117866351947
696	16475451 1602 8107250 9165746 77 81.9 50 -2.2 3.2464769271901 -11.180569099827 116.57662962888
697	16477053 1346 8107250 9165746 77 81.9 50 0.973 10.173722901535 142.8275686292 789.75486583822
698	16478399 1647 8107250 9165746 77 81.9 50 -2.2 3.1773793896427 -1.0545280155003 100.59422541476
699	16480046 1388 8107250 9165746 77 81.9 50 0.973 9.2722832219139 136.06527126433 640.97500342453
700	16481434 1606 8107250 9165746 77 81.9 50 -2.2 3.3030496510622 -0.71855248097794 139.12773043987
701	16483040 1389 8107250 9165746 77 81.9 50 0.973 11.059852666457 168.61477260672 1038.5460047712
702	16484429 1635 8107250 9165746 77 81.9 50 11.878872283289 12.195630634305 601.57382383809 7238.3397373656
703	16486064 1633 8107250 9165746 77 81.9 50 603.80678475922 655.02470229295 31471.044686404 19819899.374217
704	16487697 1140 8107250 9165746 77 81.9 50 826.6 826.6 41330 34163378
705	16488837 1634 8107250 9165746 77 81.9 50 3293.6952837703 3350.6417974578 166107.20857084 551846184.01098
706	16490471 1190 8107250 9165746 77 81.9 50 1623.4 1623.4 81170 131771378
707	16491661 1639 8107250 9165746 77 81.9 50 -2.2 2.5118215450784 -0.38582844247575 86.651485113832
708	16493300 1410 8107250 9165746 77 81.9 50 0.973 9.2179460436835 153.14755547879 785.70841002619
709	16494710 1190 8107250 9165746 77 81.9 50 1623.4 1623.4 81170 131771378
710	16495900 1636 8107250 9165746 77 81.9 50 628.44725318245 682.9348952292 32783.310735238 21507796.952725
711	16497536 1633 8107250 9165746 77 81.9 50 10.247727660208 10.65271902889 522.645057531 5463.6632997867
712	16499169 1632 8107250 9165746 77 81.9 50 11.344663920519 11.88006104757 581.13461671043 6755.1053967296
713	16500801 1622 8107250 9165746 77 81.9 50 -2.2 2.82328138338 -0.10332911054107 84.094866520652
714	16502423 1387 8107250 9165746 77 81.9 50 0.973 8.9837869092191 136.54534035303 621.00903896811
715	16503810 1636 8107250 9165746 77 81.9 50 -2.2 3.4427046003984 -3.5846181989669 134.16115796008
716	16505446 1368 8107250 9165746 77 81.9 50 0.973 11.653005211612 160.77559942207 1021.9242482698
717	16506814 1636 8107250 9165746 77 81.9 50 10.971982741245 11.304090555216 556.09220047392 6185.2367120039
718	16508450 1606 8107250 9165746 77 81.9 50 -2.2 3.2337611608673 0.38472352514511 116.5612473282
719	16510056 1396 8107250 9165746 77 81.9 50 0.973 10.598437032574 158.04939365863 854.06389891247
720	16511452 1635 8107250 9165746 77 81.9 50 559.78349330011 608.20138863765 29198.660707199 17061445.332665
721	16513087 1190 8107250 9165746 77 81.9 50 1626.6 1626.6 81330 132291378
722	16514277 1190 8107250 9165746 77 81.9 50 1626.6 1626.6 81330 132291378
723	16515467 1636 8107250 9165746 77 81.9 50 3466.3139406282 3511.9866134049 174457.81800421 608719665.0577
724	16517103 1634 8107250 9165746 77 81.9 50 623.26305634509 679.58730562094 32571.130145838 21231352.777402
725	16518737 1190 8107250 9165746 77 81.9 50 3226.6 3226.6 161330 520547378
726	16519927 1140 8107250 9165746 77 81.9 50 826.6 826.6 41330 34163378
727	16521067 1634 8107250 9165746 77 81.9 50 3422.5977003819 3472.5174526241 172378.82492596 594299968.94229
728	16522701 1637 8107250 9165746 77 81.9 50 9.5730821486596 10.240559266035 493.91283599078 4880.1466804416
729	16524338 1634 8107250 9165746 77 81.9 50 9.0361483446339 9.674475463458 466.14571306085 4346.8962137313
730	16525972 1190 8107250 9165746 77 81.9 50 2423.4 2423.4 121170 293643378
731	16527162 1633 8107250 9165746 77 81.9 50 728.20708161586 790.04126953099 37956.914692422 28831101.00032
732	16528795 1636 8107250 9165746 77 81.9 50 3385.036092552 3438.6346789064 170590.93339166 582037782.36565
733	16530431 1190 8107250 9165746 77 81.9 50 3223.4 3223.4 161170 519515378
734	16531621 1585 8107250 9165746 77 81.9 50 -2.2 3.2105282773264 3.8936916114598 121.17241308542
735	16533206 1439 8107250 9165746 77 81.9 50 0.973 9.4581338025284 150.2545971653 753.83165772161
736	16534645 1634 8107250 9165746 77 81.9 50 -2.2 3.3465669448487 -1.0319418259676 127.02835272675
737	16536279 1418 8107250 9165746 77 81.9 50 0.973 9.2333939120491 141.30817021914 701.62261395356
738	16537697 1634 8107250 9165746 77 81.9 50 11.332040832889 11.649721717099 574.65416795888 6605.0064894478
739	16539331 1634 8107250 9165746 77 81.9 50 9.9511234797007 10.484968835789 509.29050294347 5188.2482527398
740	16540965 1190 8107250 9165746 77 81.9 50 3223.4 3223.4 161170 519515378
741	16542155 1635 8107250 9165746 77 81.9 50 663.73390738698 720.12904047933 34627.107834511 23994634.71834
742	16543790 1140 8107250 9165746 77 81.9 50 823.4 823.4 41170 33899378
743	16544930 1632 8107250 9165746 77 81.9 50 554.35220181454 602.64649991852 28925.620154918 16743946.777027
744	16546562 1651 8107250 9165746 77 81.9 50 -2.2 2.9008881225018 -0.15583245013841 86.62614231542
745	16548213 1439 8107250 9165746 77 81.9 50 0.973 9.9408780144793 149.31115109351 725.56336386707
746	16549652 1616 8107250 9165746 77 81.9 50 -2.2 3.2279973283876 3.2989799123398 117.47152120302
747	16551268 1408 8107250 9165746 77 81.9 50 0.973 9.7502992797798 149.63488696753 797.04054462924
748	16552676 1634 8107250 9165746 77 81.9 50 12.417482781797 12.894144277829 630.96137600671 7963.0467893177
749	16554310 1632 8107250 9165746 77 81.9 50 10.646097635665 11.18033078797 547.00766133787 5985.2761558669
750	16555942 1634 8107250 9165746 77 81.9 50 3279.5692454829 3307.2211693163 164581.98204642 541747891.89262
751	16557576 1140 8107250 9165746 77 81.9 50 823.4 823.4 41170 33899378
752	16558716 1636 8107250 9165746 77 81.9 50 606.62718798406 656.74364759477 31583.342038664 19961048.92797
753	16560352 1190 8107250 9165746 77 81.9 50 2426.6 2426.6 121330 294419378
754	16561542 1190 8107250 9165746 77 81.9 50 3226.6 3226.6 161330 520547378
755	16562732 1633 8107250 9165746 77 81.9 50 3321.4101941767 3381.3502415761 167567.84534615 561595241.2637
756	16564365 1636 8107250 9165746 77 81.9 50 -2.2 3.3513868898153 -1.2031219711446 101.09872186495
757	16566001 1411 8107250 9165746 77 81.9 50 0.973 12.344449439292 164.42742557087 956.14757458584
758	16567412 1612 8107250 9165746 77 81.9 50 -2.2 3.3910239215474 -2.0359258355281 112.71376482214
759	16569024 1395 8107250 9165746 77 81.9 50 0.973 10.869716840611 150.23064496425 808.51247045906
760	16570419 1638 8107250 9165746 77 81.9 50 10.705654248577 12.213414581392 575.93826839885 6645.6028538172
761	16572057 1636 8107250 9165746 77 81.9 50 9.554907896859 10.161992696784 492.66959440117 4855.2214489474
762	16573693 1190 8107250 9165746 77 81.9 50 2426.6 2426.6 121330 294419378
763	16574883 1639 8107250 9165746 77 81.9 50 3355.0053825431 3410.2663916177 169131.08827162 572119742.98839
764	16576522 1627 8107250 9165746 77 81.9 50 -2.2 2.58883464674 -9.3416232623781 83.751803339172
765	16578149 1405 8107250 9165746 77 81.9 50 0.973 9.3950050041614 132.35355656521 597.27945767289
766	16579554 1611 8107250 9165746 77 81.9 50 -2.2 2.6107013088322 -0.22436707060912 93.416137542683
767	16581165 1416 8107250 9165746 77 81.9 50 0.973 8.0908684964972 138.6064190548 585.04086292499
768	16582581 1634 8107250 9165746 77 81.9 50 3.6551672815753 8.086994876091 284.47658718198 1703.2068255512
769	16584215 1637 8107250 9165746 77 81.9 50 9.9229397138312 10.520399307271 511.15666552163 5226.7022413562
770	16585852 1636 8107250 9165746 77 81.9 50 12.038003789003 12.484659360531 611.68823712425 7483.9171304332
771	16587488 1637 8107250 9165746 77 81.9 50 3337.8045285101 3396.6934519841 168362.03520352 566930502.66403
772	16589125 1190 8107250 9165746 77 81.9 50 2423.4 2423.4 121170 293643378
773	16590315 1629 8107250 9165746 77 81.9 50 3313.9209297051 3370.8792520896 167118.19010633 558583873.0872
774	16591944 1190 8107250 9165746 77 81.9 50 1623.4 1623.4 81170 131771378
775	16593134 1520 8107250 9165746 77 81.9 50 -2.2 1.8998191149699 -44.496865724056 122.46906549019
776	16594654 1286 8107250 9165746 77 81.9 50 0.973 4.286151325825 71.725928889424 141.81037250295
777	16595940 1623 8107250 9165746 77 81.9 50 -2.2 3.241184021913 -0.71097885532025 99.806496597651
778	16597563 1404 8107250 9165746 77 81.9 50 0.973 9.893055367094 140.58596192171 672.04730486941
779	16598967 1615 8107250 9165746 77 81.9 50 -2.2 3.0581553211668 -0.29617572990935 117.45487090881
780	16600582 1404 8107250 9165746 77 81.9 50 0.973 11.042503260475 167.3395646239 1029.1314313958
781	16601986 1633 8107250 9165746 77 81.9 50 10.99581153215 11.563152343498 563.8843395244 6359.9504145093
782	16603619 1635 8107250 9165746 77 81.9 50 584.99775874735 636.11358181167 30529.772449984 18652673.904193
783	16605254 1140 8107250 9165746 77 81.9 50 826.6 826.6 41330 34163378
784	16606394 1633 8107250 9165746 77 81.9 50 -2.2 2.8365507548442 -0.19268765258017 101.11303463535
785	16608027 1406 8107250 9165746 77 81.9 50 0.973 9.4974312348679 149.12983933634 799.86236838051
786	16609433 1636 8107250 9165746 77 81.9 50 11.769631621092 12.321705430182 600.9168497511 7223.0508075988
787	16611069 1635 8107250 9165746 77 81.9 50 11.324978624398 11.947548274151 581.325078477 6759.8398503355
788	16612704 1190 8107250 9165746 77 81.9 50 1623.4 1623.4 81170 131771378
789	16613894 1636 8107250 9165746 77 81.9 50 608.74900235936 663.1875546721 31795.190140076 20231538.67805
790	16615530 1572 8107250 9165746 77 81.9 50 -2.2 3.4831232170109 -1.9044788665621 159.25412695857
791	16617102 1370 8107250 9165746 77 81.9 50 0.973 12.042303702324 179.16121766167 1282.7698966796
792	16618472 1598 8107250 9165746 77 81.9 50 -2.2 3.3996465684613 -1.8403138869589 151.16902113218
793	16620070 1377 8107250 9165746 77 81.9 50 0.973 11.543421624707 169.95782024417 1167.7050307684
794	16621447 1637 8107250 9165746 77 81.9 50 10.174423523445 10.68233264386 521.49302132603 5439.6980793038
795	16623084 1622 8107250 9165746 77 81.9 50 -2.2 2.4313286452088 -0.48491442557532 103.85804379983
796	16624706 1427 8107250 9165746 77 81.9 50 0.973 7.8438665975739 147.22626253698 694.96681429513
797	16626133 1635 8107250 9165746 77 81.9 50 10.894263781789 11.403169446185 555.58500634991 6174.2121543667
798	16627768 1549 8107250 9165746 77 81.9 50 -2.2 3.0289922191461 3.9612218333533 155.94119538954
799	16629317 1414 8107250 9165746 77 81.9 50 0.973 10.00252827588 177.3482793745 1123.9403226415

