version 2
run Default-0-20220216-20:45:44-6924
attr configname Default
attr datetime 20220216-20:45:44
attr experiment Default
attr inifile omnetpp.ini
attr iterationvars ""
attr iterationvarsf ""
attr measurement ""
attr network tlExample
attr processid 6924
attr repetition 0
attr replication #0
attr resultdir results
attr runnumber 0
attr seedset 0
param *.playgroundSizeX 5000m
param *.playgroundSizeY 5000m
param *.playgroundSizeZ 50m
param *.annotations.draw true
param *.obstacles.obstacles "xmldoc(\"config.xml\", \"//AnalogueModel[@type='SimpleObstacleShadowing']/obstacles\")"
param *.manager.updateInterval 0.1s
param *.manager.host "\"localhost\""
param *.manager.port 9999
param *.manager.autoShutdown true
param *.manager.launchConfig "xmldoc(\"traffic_light_example.launchd.xml\")"
param *.rsu[0].mobility.x 825
param *.rsu[0].mobility.y 825
param *.rsu[0].mobility.z 3
param *.rsu[1].mobility.x 1625
param *.rsu[1].mobility.y 825
param *.rsu[1].mobility.z 3
param *.rsu[2].mobility.x 2425
param *.rsu[2].mobility.y 825
param *.rsu[2].mobility.z 3
param *.rsu[3].mobility.x 3225
param *.rsu[3].mobility.y 825
param *.rsu[3].mobility.z 3
param *.rsu[4].mobility.x 825
param *.rsu[4].mobility.y 1625
param *.rsu[4].mobility.z 3
param *.rsu[5].mobility.x 1625
param *.rsu[5].mobility.y 1625
param *.rsu[5].mobility.z 3
param *.rsu[6].mobility.x 2425
param *.rsu[6].mobility.y 1625
param *.rsu[6].mobility.z 3
param *.rsu[7].mobility.x 3225
param *.rsu[7].mobility.y 1625
param *.rsu[7].mobility.z 3
param *.rsu[8].mobility.x 825
param *.rsu[8].mobility.y 2425
param *.rsu[8].mobility.z 3
param *.rsu[9].mobility.x 1625
param *.rsu[9].mobility.y 2425
param *.rsu[9].mobility.z 3
param *.rsu[10].mobility.x 2425
param *.rsu[10].mobility.y 2425
param *.rsu[10].mobility.z 3
param *.rsu[11].mobility.x 3225
param *.rsu[11].mobility.y 2425
param *.rsu[11].mobility.z 3
param *.rsu[12].mobility.x 825
param *.rsu[12].mobility.y 3225
param *.rsu[12].mobility.z 3
param *.rsu[13].mobility.x 1625
param *.rsu[13].mobility.y 3225
param *.rsu[13].mobility.z 3
param *.rsu[14].mobility.x 2425
param *.rsu[14].mobility.y 3225
param *.rsu[14].mobility.z 3
param *.rsu[15].mobility.x 3225
param *.rsu[15].mobility.y 3225
param *.rsu[15].mobility.z 3
param *.rsu[*].applType "\"TlRSU\""
param *.rsu[*].appl.headerLength "80 bit"
param *.rsu[*].appl.sendBeacons false
param *.rsu[*].appl.dataOnSch true
param *.rsu[*].appl.beaconInterval 1s
param *.rsu[*].appl.beaconUserPriority 7
param *.rsu[*].appl.dataUserPriority 5
param *.rsu[*].nic.phy80211p.antennaOffsetZ "0 m"
param *.connectionManager.sendDirect true
param *.connectionManager.maxInterfDist 2600m
param *.connectionManager.drawMaxIntfDist false
param *.**.nic.mac1609_4.useServiceChannel true
param *.**.nic.mac1609_4.txPower 20mW
param *.**.nic.mac1609_4.bitrate 6Mbps
param *.**.nic.phy80211p.minPowerLevel -110dBm
param *.**.nic.phy80211p.useNoiseFloor true
param *.**.nic.phy80211p.noiseFloor -98dBm
param *.**.nic.phy80211p.decider "xmldoc(\"config.xml\")"
param *.**.nic.phy80211p.analogueModels "xmldoc(\"config.xml\")"
param *.**.nic.phy80211p.usePropagationDelay true
param *.**.nic.phy80211p.antenna "xmldoc(\"antenna.xml\", \"/root/Antenna[@id='monopole']\")"
param *.node[*].nic.phy80211p.antennaOffsetY "0 m"
param *.node[*].nic.phy80211p.antennaOffsetZ "1.895 m"
param *.node[*].applType "\"TlVehicle\""
param *.node[*].appl.headerLength "80 bit"
param *.node[*].appl.sendBeacons false
param *.node[*].appl.dataOnSch true
param *.node[*].appl.beaconInterval 1s
param *.node[*].veinsmobility.x 0
param *.node[*].veinsmobility.y 0
param *.node[*].veinsmobility.z 0
param *.node[*].veinsmobility.setHostSpeed true
param *.node[*0].veinsmobility.accidentCount 0
param *.node[*0].veinsmobility.accidentStart 73s
param *.node[*0].veinsmobility.accidentDuration 50s

scalar tlExample.node[0].appl generatedWSMs 120
scalar tlExample.node[0].appl receivedWSMs 1829
scalar tlExample.node[0].appl generatedBSMs 0
scalar tlExample.node[0].appl receivedBSMs 0
scalar tlExample.node[0].appl generatedWSAs 0
scalar tlExample.node[0].appl receivedWSAs 82
scalar tlExample.node[0].nic.phy80211p busyTime 0.0057417144739933
scalar tlExample.node[0].nic.mac1609_4 ReceivedUnicastPackets 0
scalar tlExample.node[0].nic.mac1609_4 ReceivedBroadcasts 1911
scalar tlExample.node[0].nic.mac1609_4 SentPackets 120
scalar tlExample.node[0].nic.mac1609_4 SentAcknowledgements 0
scalar tlExample.node[0].nic.mac1609_4 RetriesExceeded 0
scalar tlExample.node[0].nic.mac1609_4 SNIRLostPackets 7578
scalar tlExample.node[0].nic.mac1609_4 RXTXLostPackets 0
scalar tlExample.node[0].nic.mac1609_4 TotalLostPackets 7578
scalar tlExample.node[0].nic.mac1609_4 DroppedPacketsInMac 0
scalar tlExample.node[0].nic.mac1609_4 TooLittleTime 0
scalar tlExample.node[0].nic.mac1609_4 TimesIntoBackoff 132
scalar tlExample.node[0].nic.mac1609_4 SlotsBackoff 203
scalar tlExample.node[0].nic.mac1609_4 NumInternalContention 0
scalar tlExample.node[0].nic.mac1609_4 totalBusyTime 0.47116
scalar tlExample.node[0].nic.mac1609_4 retriesExceeded:count 0
attr source org_car2x_veins_modules_mac_sigRetriesExceeded
scalar tlExample.node[0].nic.mac1609_4 sentAcks:count 0
attr source org_car2x_veins_modules_mac_sigSentAck
scalar tlExample.node[0].nic.mac1609_4 sentPackets:count 120
attr source org_car2x_veins_modules_mac_sigSentPacket
scalar tlExample.node[0].nic.mac1609_4 collisions:count 0
attr source org_car2x_veins_modules_mac_sigCollision
scalar tlExample.node[0].nic.mac1609_4 channelBusy:timeavg 0.0057560814656812
attr source org_car2x_veins_modules_mac_sigChannelBusy
scalar tlExample.node[0].veinsmobility startTime 0.1
scalar tlExample.node[0].veinsmobility totalTime 81.8
scalar tlExample.node[0].veinsmobility stopTime 81.954296678931
scalar tlExample.node[0].veinsmobility minSpeed 0.33653294104268
scalar tlExample.node[0].veinsmobility maxSpeed 15.505118007373
scalar tlExample.node[0].veinsmobility totalDistance 1199.3306749067
scalar tlExample.node[0].veinsmobility totalCO2Emission 312.58666244981
scalar tlExample.node[19].appl generatedWSMs 111
scalar tlExample.node[19].appl receivedWSMs 1615
scalar tlExample.node[19].appl generatedBSMs 0
scalar tlExample.node[19].appl receivedBSMs 0
scalar tlExample.node[19].appl generatedWSAs 0
scalar tlExample.node[19].appl receivedWSAs 66
scalar tlExample.node[19].nic.phy80211p busyTime 0.0056625037182047
scalar tlExample.node[19].nic.mac1609_4 ReceivedUnicastPackets 0
scalar tlExample.node[19].nic.mac1609_4 ReceivedBroadcasts 1681
scalar tlExample.node[19].nic.mac1609_4 SentPackets 111
scalar tlExample.node[19].nic.mac1609_4 SentAcknowledgements 0
scalar tlExample.node[19].nic.mac1609_4 RetriesExceeded 0
scalar tlExample.node[19].nic.mac1609_4 SNIRLostPackets 7393
scalar tlExample.node[19].nic.mac1609_4 RXTXLostPackets 1
scalar tlExample.node[19].nic.mac1609_4 TotalLostPackets 7394
scalar tlExample.node[19].nic.mac1609_4 DroppedPacketsInMac 0
scalar tlExample.node[19].nic.mac1609_4 TooLittleTime 0
scalar tlExample.node[19].nic.mac1609_4 TimesIntoBackoff 126
scalar tlExample.node[19].nic.mac1609_4 SlotsBackoff 158
scalar tlExample.node[19].nic.mac1609_4 NumInternalContention 0
scalar tlExample.node[19].nic.mac1609_4 totalBusyTime 0.450703
scalar tlExample.node[19].nic.mac1609_4 retriesExceeded:count 0
attr source org_car2x_veins_modules_mac_sigRetriesExceeded
scalar tlExample.node[19].nic.mac1609_4 sentAcks:count 0
attr source org_car2x_veins_modules_mac_sigSentAck
scalar tlExample.node[19].nic.mac1609_4 sentPackets:count 111
attr source org_car2x_veins_modules_mac_sigSentPacket
scalar tlExample.node[19].nic.mac1609_4 collisions:count 0
attr source org_car2x_veins_modules_mac_sigCollision
scalar tlExample.node[19].nic.mac1609_4 channelBusy:timeavg 0.0056796294449375
attr source org_car2x_veins_modules_mac_sigChannelBusy
scalar tlExample.node[19].veinsmobility startTime 2.6
scalar tlExample.node[19].veinsmobility totalTime 79.3
scalar tlExample.node[19].veinsmobility stopTime 81.954296678931
scalar tlExample.node[19].veinsmobility minSpeed 0
scalar tlExample.node[19].veinsmobility maxSpeed 14.561659366648
scalar tlExample.node[19].veinsmobility totalDistance 978.80637391864
scalar tlExample.node[19].veinsmobility totalCO2Emission 283.32358061842
scalar tlExample.node[45].appl generatedWSMs 116
scalar tlExample.node[45].appl receivedWSMs 1576
scalar tlExample.node[45].appl generatedBSMs 0
scalar tlExample.node[45].appl receivedBSMs 0
scalar tlExample.node[45].appl generatedWSAs 0
scalar tlExample.node[45].appl receivedWSAs 62
scalar tlExample.node[45].nic.phy80211p busyTime 0.0057642691818137
scalar tlExample.node[45].nic.mac1609_4 ReceivedUnicastPackets 0
scalar tlExample.node[45].nic.mac1609_4 ReceivedBroadcasts 1638
scalar tlExample.node[45].nic.mac1609_4 SentPackets 116
scalar tlExample.node[45].nic.mac1609_4 SentAcknowledgements 0
scalar tlExample.node[45].nic.mac1609_4 RetriesExceeded 0
scalar tlExample.node[45].nic.mac1609_4 SNIRLostPackets 7292
scalar tlExample.node[45].nic.mac1609_4 RXTXLostPackets 1
scalar tlExample.node[45].nic.mac1609_4 TotalLostPackets 7293
scalar tlExample.node[45].nic.mac1609_4 DroppedPacketsInMac 0
scalar tlExample.node[45].nic.mac1609_4 TooLittleTime 0
scalar tlExample.node[45].nic.mac1609_4 TimesIntoBackoff 126
scalar tlExample.node[45].nic.mac1609_4 SlotsBackoff 163
scalar tlExample.node[45].nic.mac1609_4 NumInternalContention 0
scalar tlExample.node[45].nic.mac1609_4 totalBusyTime 0.44346
scalar tlExample.node[45].nic.mac1609_4 retriesExceeded:count 0
attr source org_car2x_veins_modules_mac_sigRetriesExceeded
scalar tlExample.node[45].nic.mac1609_4 sentAcks:count 0
attr source org_car2x_veins_modules_mac_sigSentAck
scalar tlExample.node[45].nic.mac1609_4 sentPackets:count 116
attr source org_car2x_veins_modules_mac_sigSentPacket
scalar tlExample.node[45].nic.mac1609_4 collisions:count 0
attr source org_car2x_veins_modules_mac_sigCollision
scalar tlExample.node[45].nic.mac1609_4 channelBusy:timeavg 0.0057851942971627
attr source org_car2x_veins_modules_mac_sigChannelBusy
scalar tlExample.node[45].veinsmobility startTime 5.3
scalar tlExample.node[45].veinsmobility totalTime 76.6
scalar tlExample.node[45].veinsmobility stopTime 81.954296678931
scalar tlExample.node[45].veinsmobility minSpeed 0.31519938481622
scalar tlExample.node[45].veinsmobility maxSpeed 14.306025247086
scalar tlExample.node[45].veinsmobility totalDistance 957.00250289256
scalar tlExample.node[45].veinsmobility totalCO2Emission 277.95797257587
scalar tlExample.node[60].appl generatedWSMs 107
scalar tlExample.node[60].appl receivedWSMs 1546
scalar tlExample.node[60].appl generatedBSMs 0
scalar tlExample.node[60].appl receivedBSMs 0
scalar tlExample.node[60].appl generatedWSAs 0
scalar tlExample.node[60].appl receivedWSAs 58
scalar tlExample.node[60].nic.phy80211p busyTime 0.0058237488499121
scalar tlExample.node[60].nic.mac1609_4 ReceivedUnicastPackets 0
scalar tlExample.node[60].nic.mac1609_4 ReceivedBroadcasts 1604
scalar tlExample.node[60].nic.mac1609_4 SentPackets 107
scalar tlExample.node[60].nic.mac1609_4 SentAcknowledgements 0
scalar tlExample.node[60].nic.mac1609_4 RetriesExceeded 0
scalar tlExample.node[60].nic.mac1609_4 SNIRLostPackets 7132
scalar tlExample.node[60].nic.mac1609_4 RXTXLostPackets 2
scalar tlExample.node[60].nic.mac1609_4 TotalLostPackets 7134
scalar tlExample.node[60].nic.mac1609_4 DroppedPacketsInMac 0
scalar tlExample.node[60].nic.mac1609_4 TooLittleTime 0
scalar tlExample.node[60].nic.mac1609_4 TimesIntoBackoff 119
scalar tlExample.node[60].nic.mac1609_4 SlotsBackoff 157
scalar tlExample.node[60].nic.mac1609_4 NumInternalContention 0
scalar tlExample.node[60].nic.mac1609_4 totalBusyTime 0.433259
scalar tlExample.node[60].nic.mac1609_4 retriesExceeded:count 0
attr source org_car2x_veins_modules_mac_sigRetriesExceeded
scalar tlExample.node[60].nic.mac1609_4 sentAcks:count 0
attr source org_car2x_veins_modules_mac_sigSentAck
scalar tlExample.node[60].nic.mac1609_4 sentPackets:count 107
attr source org_car2x_veins_modules_mac_sigSentPacket
scalar tlExample.node[60].nic.mac1609_4 collisions:count 0
attr source org_car2x_veins_modules_mac_sigCollision
scalar tlExample.node[60].nic.mac1609_4 channelBusy:timeavg 0.0058426688594441
attr source org_car2x_veins_modules_mac_sigChannelBusy
scalar tlExample.node[60].veinsmobility startTime 7.8
scalar tlExample.node[60].veinsmobility totalTime 74.1
scalar tlExample.node[60].veinsmobility stopTime 81.954296678931
scalar tlExample.node[60].veinsmobility minSpeed 0
scalar tlExample.node[60].veinsmobility maxSpeed 14.101375646938
scalar tlExample.node[60].veinsmobility totalDistance 792.22200427592
scalar tlExample.node[60].veinsmobility totalCO2Emission 229.18897024894
scalar tlExample.node[79].appl generatedWSMs 97
scalar tlExample.node[79].appl receivedWSMs 1497
scalar tlExample.node[79].appl generatedBSMs 0
scalar tlExample.node[79].appl receivedBSMs 0
scalar tlExample.node[79].appl generatedWSAs 0
scalar tlExample.node[79].appl receivedWSAs 53
scalar tlExample.node[79].nic.phy80211p busyTime 0.0057992873663279
scalar tlExample.node[79].nic.mac1609_4 ReceivedUnicastPackets 0
scalar tlExample.node[79].nic.mac1609_4 ReceivedBroadcasts 1550
scalar tlExample.node[79].nic.mac1609_4 SentPackets 97
scalar tlExample.node[79].nic.mac1609_4 SentAcknowledgements 0
scalar tlExample.node[79].nic.mac1609_4 RetriesExceeded 0
scalar tlExample.node[79].nic.mac1609_4 SNIRLostPackets 6839
scalar tlExample.node[79].nic.mac1609_4 RXTXLostPackets 1
scalar tlExample.node[79].nic.mac1609_4 TotalLostPackets 6840
scalar tlExample.node[79].nic.mac1609_4 DroppedPacketsInMac 0
scalar tlExample.node[79].nic.mac1609_4 TooLittleTime 0
scalar tlExample.node[79].nic.mac1609_4 TimesIntoBackoff 108
scalar tlExample.node[79].nic.mac1609_4 SlotsBackoff 147
scalar tlExample.node[79].nic.mac1609_4 NumInternalContention 0
scalar tlExample.node[79].nic.mac1609_4 totalBusyTime 0.415681
scalar tlExample.node[79].nic.mac1609_4 retriesExceeded:count 0
attr source org_car2x_veins_modules_mac_sigRetriesExceeded
scalar tlExample.node[79].nic.mac1609_4 sentAcks:count 0
attr source org_car2x_veins_modules_mac_sigSentAck
scalar tlExample.node[79].nic.mac1609_4 sentPackets:count 97
attr source org_car2x_veins_modules_mac_sigSentPacket
scalar tlExample.node[79].nic.mac1609_4 collisions:count 0
attr source org_car2x_veins_modules_mac_sigCollision
scalar tlExample.node[79].nic.mac1609_4 channelBusy:timeavg 0.005817438829015
attr source org_car2x_veins_modules_mac_sigChannelBusy
scalar tlExample.node[79].veinsmobility startTime 10.5
scalar tlExample.node[79].veinsmobility totalTime 71.4
scalar tlExample.node[79].veinsmobility stopTime 81.954296678931
scalar tlExample.node[79].veinsmobility minSpeed 0.33250449224957
scalar tlExample.node[79].veinsmobility maxSpeed 12.265935153794
scalar tlExample.node[79].veinsmobility totalDistance 780.86594607595
scalar tlExample.node[79].veinsmobility totalCO2Emission 214.05918050109
scalar tlExample.node[95].appl generatedWSMs 101
scalar tlExample.node[95].appl receivedWSMs 1470
scalar tlExample.node[95].appl generatedBSMs 0
scalar tlExample.node[95].appl receivedBSMs 0
scalar tlExample.node[95].appl generatedWSAs 0
scalar tlExample.node[95].appl receivedWSAs 53
scalar tlExample.node[95].nic.phy80211p busyTime 0.0059248519624855
scalar tlExample.node[95].nic.mac1609_4 ReceivedUnicastPackets 0
scalar tlExample.node[95].nic.mac1609_4 ReceivedBroadcasts 1523
scalar tlExample.node[95].nic.mac1609_4 SentPackets 101
scalar tlExample.node[95].nic.mac1609_4 SentAcknowledgements 0
scalar tlExample.node[95].nic.mac1609_4 RetriesExceeded 0
scalar tlExample.node[95].nic.mac1609_4 SNIRLostPackets 6755
scalar tlExample.node[95].nic.mac1609_4 RXTXLostPackets 0
scalar tlExample.node[95].nic.mac1609_4 TotalLostPackets 6755
scalar tlExample.node[95].nic.mac1609_4 DroppedPacketsInMac 0
scalar tlExample.node[95].nic.mac1609_4 TooLittleTime 0
scalar tlExample.node[95].nic.mac1609_4 TimesIntoBackoff 118
scalar tlExample.node[95].nic.mac1609_4 SlotsBackoff 143
scalar tlExample.node[95].nic.mac1609_4 NumInternalContention 0
scalar tlExample.node[95].nic.mac1609_4 totalBusyTime 0.410181
scalar tlExample.node[95].nic.mac1609_4 retriesExceeded:count 0
attr source org_car2x_veins_modules_mac_sigRetriesExceeded
scalar tlExample.node[95].nic.mac1609_4 sentAcks:count 0
attr source org_car2x_veins_modules_mac_sigSentAck
scalar tlExample.node[95].nic.mac1609_4 sentPackets:count 101
attr source org_car2x_veins_modules_mac_sigSentPacket
scalar tlExample.node[95].nic.mac1609_4 collisions:count 0
attr source org_car2x_veins_modules_mac_sigCollision
scalar tlExample.node[95].nic.mac1609_4 channelBusy:timeavg 0.0059485923249987
attr source org_car2x_veins_modules_mac_sigChannelBusy
scalar tlExample.node[95].veinsmobility startTime 13
scalar tlExample.node[95].veinsmobility totalTime 68.9
scalar tlExample.node[95].veinsmobility stopTime 81.954296678931
scalar tlExample.node[95].veinsmobility minSpeed 0.32046931398916
scalar tlExample.node[95].veinsmobility maxSpeed 13.821964564085
scalar tlExample.node[95].veinsmobility totalDistance 767.92080967062
scalar tlExample.node[95].veinsmobility totalCO2Emission 217.18731544343
scalar tlExample.node[111].appl generatedWSMs 89
scalar tlExample.node[111].appl receivedWSMs 1469
scalar tlExample.node[111].appl generatedBSMs 0
scalar tlExample.node[111].appl receivedBSMs 0
scalar tlExample.node[111].appl generatedWSAs 0
scalar tlExample.node[111].appl receivedWSAs 50
scalar tlExample.node[111].nic.phy80211p busyTime 0.006085393413991
scalar tlExample.node[111].nic.mac1609_4 ReceivedUnicastPackets 0
scalar tlExample.node[111].nic.mac1609_4 ReceivedBroadcasts 1519
scalar tlExample.node[111].nic.mac1609_4 SentPackets 89
scalar tlExample.node[111].nic.mac1609_4 SentAcknowledgements 0
scalar tlExample.node[111].nic.mac1609_4 RetriesExceeded 0
scalar tlExample.node[111].nic.mac1609_4 SNIRLostPackets 6669
scalar tlExample.node[111].nic.mac1609_4 RXTXLostPackets 1
scalar tlExample.node[111].nic.mac1609_4 TotalLostPackets 6670
scalar tlExample.node[111].nic.mac1609_4 DroppedPacketsInMac 0
scalar tlExample.node[111].nic.mac1609_4 TooLittleTime 0
scalar tlExample.node[111].nic.mac1609_4 TimesIntoBackoff 99
scalar tlExample.node[111].nic.mac1609_4 SlotsBackoff 135
scalar tlExample.node[111].nic.mac1609_4 NumInternalContention 0
scalar tlExample.node[111].nic.mac1609_4 totalBusyTime 0.405073115666
scalar tlExample.node[111].nic.mac1609_4 retriesExceeded:count 0
attr source org_car2x_veins_modules_mac_sigRetriesExceeded
scalar tlExample.node[111].nic.mac1609_4 sentAcks:count 0
attr source org_car2x_veins_modules_mac_sigSentAck
scalar tlExample.node[111].nic.mac1609_4 sentPackets:count 89
attr source org_car2x_veins_modules_mac_sigSentPacket
scalar tlExample.node[111].nic.mac1609_4 collisions:count 0
attr source org_car2x_veins_modules_mac_sigCollision
scalar tlExample.node[111].nic.mac1609_4 channelBusy:timeavg 0.0061025304453953
attr source org_car2x_veins_modules_mac_sigChannelBusy
scalar tlExample.node[111].veinsmobility startTime 15.6
scalar tlExample.node[111].veinsmobility totalTime 66.3
scalar tlExample.node[111].veinsmobility stopTime 81.954296678931
scalar tlExample.node[111].veinsmobility minSpeed 0.33461436574929
scalar tlExample.node[111].veinsmobility maxSpeed 13.129520072903
scalar tlExample.node[111].veinsmobility totalDistance 753.56851380397
scalar tlExample.node[111].veinsmobility totalCO2Emission 214.24429176975
scalar tlExample.node[127].appl generatedWSMs 88
scalar tlExample.node[127].appl receivedWSMs 1383
scalar tlExample.node[127].appl generatedBSMs 0
scalar tlExample.node[127].appl receivedBSMs 0
scalar tlExample.node[127].appl generatedWSAs 0
scalar tlExample.node[127].appl receivedWSAs 45
scalar tlExample.node[127].nic.phy80211p busyTime 0.0059242372036773
scalar tlExample.node[127].nic.mac1609_4 ReceivedUnicastPackets 0
scalar tlExample.node[127].nic.mac1609_4 ReceivedBroadcasts 1428
scalar tlExample.node[127].nic.mac1609_4 SentPackets 88
scalar tlExample.node[127].nic.mac1609_4 SentAcknowledgements 0
scalar tlExample.node[127].nic.mac1609_4 RetriesExceeded 0
scalar tlExample.node[127].nic.mac1609_4 SNIRLostPackets 6248
scalar tlExample.node[127].nic.mac1609_4 RXTXLostPackets 0
scalar tlExample.node[127].nic.mac1609_4 TotalLostPackets 6248
scalar tlExample.node[127].nic.mac1609_4 DroppedPacketsInMac 0
scalar tlExample.node[127].nic.mac1609_4 TooLittleTime 0
scalar tlExample.node[127].nic.mac1609_4 TimesIntoBackoff 94
scalar tlExample.node[127].nic.mac1609_4 SlotsBackoff 134
scalar tlExample.node[127].nic.mac1609_4 NumInternalContention 0
scalar tlExample.node[127].nic.mac1609_4 totalBusyTime 0.379864
scalar tlExample.node[127].nic.mac1609_4 retriesExceeded:count 0
attr source org_car2x_veins_modules_mac_sigRetriesExceeded
scalar tlExample.node[127].nic.mac1609_4 sentAcks:count 0
attr source org_car2x_veins_modules_mac_sigSentAck
scalar tlExample.node[127].nic.mac1609_4 sentPackets:count 88
attr source org_car2x_veins_modules_mac_sigSentPacket
scalar tlExample.node[127].nic.mac1609_4 collisions:count 0
attr source org_car2x_veins_modules_mac_sigCollision
scalar tlExample.node[127].nic.mac1609_4 channelBusy:timeavg 0.0059489183932287
attr source org_car2x_veins_modules_mac_sigChannelBusy
scalar tlExample.node[127].veinsmobility startTime 18.1
scalar tlExample.node[127].veinsmobility totalTime 63.8
scalar tlExample.node[127].veinsmobility stopTime 81.954296678931
scalar tlExample.node[127].veinsmobility minSpeed 0.33273230266059
scalar tlExample.node[127].veinsmobility maxSpeed 10.617998764411
scalar tlExample.node[127].veinsmobility totalDistance 643.89616275498
scalar tlExample.node[127].veinsmobility totalCO2Emission 186.19323054116
scalar tlExample.node[141].appl generatedWSMs 79
scalar tlExample.node[141].appl receivedWSMs 1365
scalar tlExample.node[141].appl generatedBSMs 0
scalar tlExample.node[141].appl receivedBSMs 0
scalar tlExample.node[141].appl generatedWSAs 0
scalar tlExample.node[141].appl receivedWSAs 43
scalar tlExample.node[141].nic.phy80211p busyTime 0.0060457286158699
scalar tlExample.node[141].nic.mac1609_4 ReceivedUnicastPackets 0
scalar tlExample.node[141].nic.mac1609_4 ReceivedBroadcasts 1408
scalar tlExample.node[141].nic.mac1609_4 SentPackets 79
scalar tlExample.node[141].nic.mac1609_4 SentAcknowledgements 0
scalar tlExample.node[141].nic.mac1609_4 RetriesExceeded 0
scalar tlExample.node[141].nic.mac1609_4 SNIRLostPackets 6136
scalar tlExample.node[141].nic.mac1609_4 RXTXLostPackets 2
scalar tlExample.node[141].nic.mac1609_4 TotalLostPackets 6138
scalar tlExample.node[141].nic.mac1609_4 DroppedPacketsInMac 0
scalar tlExample.node[141].nic.mac1609_4 TooLittleTime 4
scalar tlExample.node[141].nic.mac1609_4 TimesIntoBackoff 91
scalar tlExample.node[141].nic.mac1609_4 SlotsBackoff 135
scalar tlExample.node[141].nic.mac1609_4 NumInternalContention 0
scalar tlExample.node[141].nic.mac1609_4 totalBusyTime 0.373066672581
scalar tlExample.node[141].nic.mac1609_4 retriesExceeded:count 0
attr source org_car2x_veins_modules_mac_sigRetriesExceeded
scalar tlExample.node[141].nic.mac1609_4 sentAcks:count 0
attr source org_car2x_veins_modules_mac_sigSentAck
scalar tlExample.node[141].nic.mac1609_4 sentPackets:count 79
attr source org_car2x_veins_modules_mac_sigSentPacket
scalar tlExample.node[141].nic.mac1609_4 collisions:count 0
attr source org_car2x_veins_modules_mac_sigCollision
scalar tlExample.node[141].nic.mac1609_4 channelBusy:timeavg 0.0060690739742669
attr source org_car2x_veins_modules_mac_sigChannelBusy
scalar tlExample.node[141].veinsmobility startTime 20.5
scalar tlExample.node[141].veinsmobility totalTime 61.4
scalar tlExample.node[141].veinsmobility stopTime 81.954296678931
scalar tlExample.node[141].veinsmobility minSpeed 0.32427015330293
scalar tlExample.node[141].veinsmobility maxSpeed 11.581043075115
scalar tlExample.node[141].veinsmobility totalDistance 624.92470229295
scalar tlExample.node[141].veinsmobility totalCO2Emission 188.23184261145
scalar tlExample.node[158].appl generatedWSMs 81
scalar tlExample.node[158].appl receivedWSMs 1330
scalar tlExample.node[158].appl generatedBSMs 0
scalar tlExample.node[158].appl receivedBSMs 0
scalar tlExample.node[158].appl generatedWSAs 0
scalar tlExample.node[158].appl receivedWSAs 42
scalar tlExample.node[158].nic.phy80211p busyTime 0.0061512056021114
scalar tlExample.node[158].nic.mac1609_4 ReceivedUnicastPackets 0
scalar tlExample.node[158].nic.mac1609_4 ReceivedBroadcasts 1372
scalar tlExample.node[158].nic.mac1609_4 SentPackets 81
scalar tlExample.node[158].nic.mac1609_4 SentAcknowledgements 0
scalar tlExample.node[158].nic.mac1609_4 RetriesExceeded 0
scalar tlExample.node[158].nic.mac1609_4 SNIRLostPackets 5997
scalar tlExample.node[158].nic.mac1609_4 RXTXLostPackets 0
scalar tlExample.node[158].nic.mac1609_4 TotalLostPackets 5997
scalar tlExample.node[158].nic.mac1609_4 DroppedPacketsInMac 0
scalar tlExample.node[158].nic.mac1609_4 TooLittleTime 0
scalar tlExample.node[158].nic.mac1609_4 TimesIntoBackoff 90
scalar tlExample.node[158].nic.mac1609_4 SlotsBackoff 112
scalar tlExample.node[158].nic.mac1609_4 NumInternalContention 0
scalar tlExample.node[158].nic.mac1609_4 totalBusyTime 0.364204794365
scalar tlExample.node[158].nic.mac1609_4 retriesExceeded:count 0
attr source org_car2x_veins_modules_mac_sigRetriesExceeded
scalar tlExample.node[158].nic.mac1609_4 sentAcks:count 0
attr source org_car2x_veins_modules_mac_sigSentAck
scalar tlExample.node[158].nic.mac1609_4 sentPackets:count 81
attr source org_car2x_veins_modules_mac_sigSentPacket
scalar tlExample.node[158].nic.mac1609_4 collisions:count 0
attr source org_car2x_veins_modules_mac_sigCollision
scalar tlExample.node[158].nic.mac1609_4 channelBusy:timeavg 0.0061769339111651
attr source org_car2x_veins_modules_mac_sigChannelBusy
scalar tlExample.node[158].veinsmobility startTime 23
scalar tlExample.node[158].veinsmobility totalTime 58.9
scalar tlExample.node[158].veinsmobility stopTime 81.954296678931
scalar tlExample.node[158].veinsmobility minSpeed 0.31524678891641
scalar tlExample.node[158].veinsmobility maxSpeed 12.91824629012
scalar tlExample.node[158].veinsmobility totalDistance 606.01358181167
scalar tlExample.node[158].veinsmobility totalCO2Emission 184.48899248785
scalar tlExample.node[1].appl generatedWSMs 126
scalar tlExample.node[1].appl receivedWSMs 922
scalar tlExample.node[1].appl generatedBSMs 0
scalar tlExample.node[1].appl receivedBSMs 0
scalar tlExample.node[1].appl generatedWSAs 0
scalar tlExample.node[1].appl receivedWSAs 85
scalar tlExample.node[1].nic.phy80211p busyTime 0.007307227894782
scalar tlExample.node[1].nic.mac1609_4 ReceivedUnicastPackets 0
scalar tlExample.node[1].nic.mac1609_4 ReceivedBroadcasts 1007
scalar tlExample.node[1].nic.mac1609_4 SentPackets 126
scalar tlExample.node[1].nic.mac1609_4 SentAcknowledgements 0
scalar tlExample.node[1].nic.mac1609_4 RetriesExceeded 0
scalar tlExample.node[1].nic.mac1609_4 SNIRLostPackets 11099
scalar tlExample.node[1].nic.mac1609_4 RXTXLostPackets 2
scalar tlExample.node[1].nic.mac1609_4 TotalLostPackets 11101
scalar tlExample.node[1].nic.mac1609_4 DroppedPacketsInMac 0
scalar tlExample.node[1].nic.mac1609_4 TooLittleTime 0
scalar tlExample.node[1].nic.mac1609_4 TimesIntoBackoff 137
scalar tlExample.node[1].nic.mac1609_4 SlotsBackoff 207
scalar tlExample.node[1].nic.mac1609_4 NumInternalContention 0
scalar tlExample.node[1].nic.mac1609_4 totalBusyTime 0.595662
scalar tlExample.node[1].nic.mac1609_4 retriesExceeded:count 0
attr source org_car2x_veins_modules_mac_sigRetriesExceeded
scalar tlExample.node[1].nic.mac1609_4 sentAcks:count 0
attr source org_car2x_veins_modules_mac_sigSentAck
scalar tlExample.node[1].nic.mac1609_4 sentPackets:count 126
attr source org_car2x_veins_modules_mac_sigSentPacket
scalar tlExample.node[1].nic.mac1609_4 collisions:count 0
attr source org_car2x_veins_modules_mac_sigCollision
scalar tlExample.node[1].nic.mac1609_4 channelBusy:timeavg 0.0072776806237879
attr source org_car2x_veins_modules_mac_sigChannelBusy
scalar tlExample.node[1].veinsmobility startTime 0.1
scalar tlExample.node[1].veinsmobility totalTime 81.8
scalar tlExample.node[1].veinsmobility stopTime 81.954296678931
scalar tlExample.node[1].veinsmobility minSpeed 0.31639939444372
scalar tlExample.node[1].veinsmobility maxSpeed 15.639236004378
scalar tlExample.node[1].veinsmobility totalDistance 1204.1841155892
scalar tlExample.node[1].veinsmobility totalCO2Emission 316.92559214862
scalar tlExample.node[20].appl generatedWSMs 118
scalar tlExample.node[20].appl receivedWSMs 934
scalar tlExample.node[20].appl generatedBSMs 0
scalar tlExample.node[20].appl receivedBSMs 0
scalar tlExample.node[20].appl generatedWSAs 0
scalar tlExample.node[20].appl receivedWSAs 63
scalar tlExample.node[20].nic.phy80211p busyTime 0.0069234814369651
scalar tlExample.node[20].nic.mac1609_4 ReceivedUnicastPackets 0
scalar tlExample.node[20].nic.mac1609_4 ReceivedBroadcasts 997
scalar tlExample.node[20].nic.mac1609_4 SentPackets 118
scalar tlExample.node[20].nic.mac1609_4 SentAcknowledgements 0
scalar tlExample.node[20].nic.mac1609_4 RetriesExceeded 0
scalar tlExample.node[20].nic.mac1609_4 SNIRLostPackets 10120
scalar tlExample.node[20].nic.mac1609_4 RXTXLostPackets 2
scalar tlExample.node[20].nic.mac1609_4 TotalLostPackets 10122
scalar tlExample.node[20].nic.mac1609_4 DroppedPacketsInMac 0
scalar tlExample.node[20].nic.mac1609_4 TooLittleTime 0
scalar tlExample.node[20].nic.mac1609_4 TimesIntoBackoff 134
scalar tlExample.node[20].nic.mac1609_4 SlotsBackoff 175
scalar tlExample.node[20].nic.mac1609_4 NumInternalContention 0
scalar tlExample.node[20].nic.mac1609_4 totalBusyTime 0.548326
scalar tlExample.node[20].nic.mac1609_4 retriesExceeded:count 0
attr source org_car2x_veins_modules_mac_sigRetriesExceeded
scalar tlExample.node[20].nic.mac1609_4 sentAcks:count 0
attr source org_car2x_veins_modules_mac_sigSentAck
scalar tlExample.node[20].nic.mac1609_4 sentPackets:count 118
attr source org_car2x_veins_modules_mac_sigSentPacket
scalar tlExample.node[20].nic.mac1609_4 collisions:count 0
attr source org_car2x_veins_modules_mac_sigCollision
scalar tlExample.node[20].nic.mac1609_4 channelBusy:timeavg 0.0069104385693156
attr source org_car2x_veins_modules_mac_sigChannelBusy
scalar tlExample.node[20].veinsmobility startTime 2.6
scalar tlExample.node[20].veinsmobility totalTime 79.3
scalar tlExample.node[20].veinsmobility stopTime 81.954296678931
scalar tlExample.node[20].veinsmobility minSpeed 0.31849501506076
scalar tlExample.node[20].veinsmobility maxSpeed 12.551264307011
scalar tlExample.node[20].veinsmobility totalDistance 939.11381855474
scalar tlExample.node[20].veinsmobility totalCO2Emission 251.64001527417
scalar tlExample.node[46].appl generatedWSMs 125
scalar tlExample.node[46].appl receivedWSMs 927
scalar tlExample.node[46].appl generatedBSMs 0
scalar tlExample.node[46].appl receivedBSMs 0
scalar tlExample.node[46].appl generatedWSAs 0
scalar tlExample.node[46].appl receivedWSAs 65
scalar tlExample.node[46].nic.phy80211p busyTime 0.0070759242925658
scalar tlExample.node[46].nic.mac1609_4 ReceivedUnicastPackets 0
scalar tlExample.node[46].nic.mac1609_4 ReceivedBroadcasts 992
scalar tlExample.node[46].nic.mac1609_4 SentPackets 125
scalar tlExample.node[46].nic.mac1609_4 SentAcknowledgements 0
scalar tlExample.node[46].nic.mac1609_4 RetriesExceeded 0
scalar tlExample.node[46].nic.mac1609_4 SNIRLostPackets 9991
scalar tlExample.node[46].nic.mac1609_4 RXTXLostPackets 2
scalar tlExample.node[46].nic.mac1609_4 TotalLostPackets 9993
scalar tlExample.node[46].nic.mac1609_4 DroppedPacketsInMac 0
scalar tlExample.node[46].nic.mac1609_4 TooLittleTime 0
scalar tlExample.node[46].nic.mac1609_4 TimesIntoBackoff 134
scalar tlExample.node[46].nic.mac1609_4 SlotsBackoff 191
scalar tlExample.node[46].nic.mac1609_4 NumInternalContention 0
scalar tlExample.node[46].nic.mac1609_4 totalBusyTime 0.542045
scalar tlExample.node[46].nic.mac1609_4 retriesExceeded:count 0
attr source org_car2x_veins_modules_mac_sigRetriesExceeded
scalar tlExample.node[46].nic.mac1609_4 sentAcks:count 0
attr source org_car2x_veins_modules_mac_sigSentAck
scalar tlExample.node[46].nic.mac1609_4 sentPackets:count 125
attr source org_car2x_veins_modules_mac_sigSentPacket
scalar tlExample.node[46].nic.mac1609_4 collisions:count 0
attr source org_car2x_veins_modules_mac_sigCollision
scalar tlExample.node[46].nic.mac1609_4 channelBusy:timeavg 0.0070719056112479
attr source org_car2x_veins_modules_mac_sigChannelBusy
scalar tlExample.node[46].veinsmobility startTime 5.3
scalar tlExample.node[46].veinsmobility totalTime 76.6
scalar tlExample.node[46].veinsmobility stopTime 81.954296678931
scalar tlExample.node[46].veinsmobility minSpeed 0.32323223887361
scalar tlExample.node[46].veinsmobility maxSpeed 13.769223184913
scalar tlExample.node[46].veinsmobility totalDistance 917.94794143124
scalar tlExample.node[46].veinsmobility totalCO2Emission 264.86199261806
scalar tlExample.node[63].appl generatedWSMs 119
scalar tlExample.node[63].appl receivedWSMs 934
scalar tlExample.node[63].appl generatedBSMs 0
scalar tlExample.node[63].appl receivedBSMs 0
scalar tlExample.node[63].appl generatedWSAs 0
scalar tlExample.node[63].appl receivedWSAs 61
scalar tlExample.node[63].nic.phy80211p busyTime 0.0072416054712537
scalar tlExample.node[63].nic.mac1609_4 ReceivedUnicastPackets 0
scalar tlExample.node[63].nic.mac1609_4 ReceivedBroadcasts 995
scalar tlExample.node[63].nic.mac1609_4 SentPackets 119
scalar tlExample.node[63].nic.mac1609_4 SentAcknowledgements 0
scalar tlExample.node[63].nic.mac1609_4 RetriesExceeded 0
scalar tlExample.node[63].nic.mac1609_4 SNIRLostPackets 9872
scalar tlExample.node[63].nic.mac1609_4 RXTXLostPackets 1
scalar tlExample.node[63].nic.mac1609_4 TotalLostPackets 9873
scalar tlExample.node[63].nic.mac1609_4 DroppedPacketsInMac 0
scalar tlExample.node[63].nic.mac1609_4 TooLittleTime 0
scalar tlExample.node[63].nic.mac1609_4 TimesIntoBackoff 129
scalar tlExample.node[63].nic.mac1609_4 SlotsBackoff 183
scalar tlExample.node[63].nic.mac1609_4 NumInternalContention 0
scalar tlExample.node[63].nic.mac1609_4 totalBusyTime 0.535671016663
scalar tlExample.node[63].nic.mac1609_4 retriesExceeded:count 0
attr source org_car2x_veins_modules_mac_sigRetriesExceeded
scalar tlExample.node[63].nic.mac1609_4 sentAcks:count 0
attr source org_car2x_veins_modules_mac_sigSentAck
scalar tlExample.node[63].nic.mac1609_4 sentPackets:count 119
attr source org_car2x_veins_modules_mac_sigSentPacket
scalar tlExample.node[63].nic.mac1609_4 collisions:count 0
attr source org_car2x_veins_modules_mac_sigCollision
scalar tlExample.node[63].nic.mac1609_4 channelBusy:timeavg 0.007234123468023
attr source org_car2x_veins_modules_mac_sigChannelBusy
scalar tlExample.node[63].veinsmobility startTime 7.9
scalar tlExample.node[63].veinsmobility totalTime 74
scalar tlExample.node[63].veinsmobility stopTime 81.954296678931
scalar tlExample.node[63].veinsmobility minSpeed 0.33730158800725
scalar tlExample.node[63].veinsmobility maxSpeed 14.928762047261
scalar tlExample.node[63].veinsmobility totalDistance 897.01462972988
scalar tlExample.node[63].veinsmobility totalCO2Emission 263.00579933312
scalar tlExample.node[78].appl generatedWSMs 107
scalar tlExample.node[78].appl receivedWSMs 948
scalar tlExample.node[78].appl generatedBSMs 0
scalar tlExample.node[78].appl receivedBSMs 0
scalar tlExample.node[78].appl generatedWSAs 0
scalar tlExample.node[78].appl receivedWSAs 58
scalar tlExample.node[78].nic.phy80211p busyTime 0.007407409821639
scalar tlExample.node[78].nic.mac1609_4 ReceivedUnicastPackets 0
scalar tlExample.node[78].nic.mac1609_4 ReceivedBroadcasts 1006
scalar tlExample.node[78].nic.mac1609_4 SentPackets 106
scalar tlExample.node[78].nic.mac1609_4 SentAcknowledgements 0
scalar tlExample.node[78].nic.mac1609_4 RetriesExceeded 0
scalar tlExample.node[78].nic.mac1609_4 SNIRLostPackets 9742
scalar tlExample.node[78].nic.mac1609_4 RXTXLostPackets 3
scalar tlExample.node[78].nic.mac1609_4 TotalLostPackets 9745
scalar tlExample.node[78].nic.mac1609_4 DroppedPacketsInMac 0
scalar tlExample.node[78].nic.mac1609_4 TooLittleTime 0
scalar tlExample.node[78].nic.mac1609_4 TimesIntoBackoff 120
scalar tlExample.node[78].nic.mac1609_4 SlotsBackoff 162
scalar tlExample.node[78].nic.mac1609_4 NumInternalContention 0
scalar tlExample.node[78].nic.mac1609_4 totalBusyTime 0.528938
scalar tlExample.node[78].nic.mac1609_4 retriesExceeded:count 0
attr source org_car2x_veins_modules_mac_sigRetriesExceeded
scalar tlExample.node[78].nic.mac1609_4 sentAcks:count 0
attr source org_car2x_veins_modules_mac_sigSentAck
scalar tlExample.node[78].nic.mac1609_4 sentPackets:count 106
attr source org_car2x_veins_modules_mac_sigSentPacket
scalar tlExample.node[78].nic.mac1609_4 collisions:count 0
attr source org_car2x_veins_modules_mac_sigCollision
scalar tlExample.node[78].nic.mac1609_4 channelBusy:timeavg 0.0073927756996002
attr source org_car2x_veins_modules_mac_sigChannelBusy
scalar tlExample.node[78].veinsmobility startTime 10.4
scalar tlExample.node[78].veinsmobility totalTime 71.5
scalar tlExample.node[78].veinsmobility stopTime 81.954296678931
scalar tlExample.node[78].veinsmobility minSpeed 0.33181993354345
scalar tlExample.node[78].veinsmobility maxSpeed 15.537439008105
scalar tlExample.node[78].veinsmobility totalDistance 875.88830258056
scalar tlExample.node[78].veinsmobility totalCO2Emission 258.15595114244
scalar tlExample.node[93].appl generatedWSMs 98
scalar tlExample.node[93].appl receivedWSMs 955
scalar tlExample.node[93].appl generatedBSMs 0
scalar tlExample.node[93].appl receivedBSMs 0
scalar tlExample.node[93].appl generatedWSAs 0
scalar tlExample.node[93].appl receivedWSAs 56
scalar tlExample.node[93].nic.phy80211p busyTime 0.0075787318844658
scalar tlExample.node[93].nic.mac1609_4 ReceivedUnicastPackets 0
scalar tlExample.node[93].nic.mac1609_4 ReceivedBroadcasts 1011
scalar tlExample.node[93].nic.mac1609_4 SentPackets 98
scalar tlExample.node[93].nic.mac1609_4 SentAcknowledgements 0
scalar tlExample.node[93].nic.mac1609_4 RetriesExceeded 0
scalar tlExample.node[93].nic.mac1609_4 SNIRLostPackets 9610
scalar tlExample.node[93].nic.mac1609_4 RXTXLostPackets 2
scalar tlExample.node[93].nic.mac1609_4 TotalLostPackets 9612
scalar tlExample.node[93].nic.mac1609_4 DroppedPacketsInMac 0
scalar tlExample.node[93].nic.mac1609_4 TooLittleTime 0
scalar tlExample.node[93].nic.mac1609_4 TimesIntoBackoff 106
scalar tlExample.node[93].nic.mac1609_4 SlotsBackoff 169
scalar tlExample.node[93].nic.mac1609_4 NumInternalContention 0
scalar tlExample.node[93].nic.mac1609_4 totalBusyTime 0.522002015
scalar tlExample.node[93].nic.mac1609_4 retriesExceeded:count 0
attr source org_car2x_veins_modules_mac_sigRetriesExceeded
scalar tlExample.node[93].nic.mac1609_4 sentAcks:count 0
attr source org_car2x_veins_modules_mac_sigSentAck
scalar tlExample.node[93].nic.mac1609_4 sentPackets:count 98
attr source org_car2x_veins_modules_mac_sigSentPacket
scalar tlExample.node[93].nic.mac1609_4 collisions:count 0
attr source org_car2x_veins_modules_mac_sigCollision
scalar tlExample.node[93].nic.mac1609_4 channelBusy:timeavg 0.0075599761625443
attr source org_car2x_veins_modules_mac_sigChannelBusy
scalar tlExample.node[93].veinsmobility startTime 12.9
scalar tlExample.node[93].veinsmobility totalTime 69
scalar tlExample.node[93].veinsmobility stopTime 81.954296678931
scalar tlExample.node[93].veinsmobility minSpeed 0.32328277486609
scalar tlExample.node[93].veinsmobility maxSpeed 15.63435897485
scalar tlExample.node[93].veinsmobility totalDistance 854.81669341632
scalar tlExample.node[93].veinsmobility totalCO2Emission 251.33462864074
scalar tlExample.node[108].appl generatedWSMs 95
scalar tlExample.node[108].appl receivedWSMs 954
scalar tlExample.node[108].appl generatedBSMs 0
scalar tlExample.node[108].appl receivedBSMs 0
scalar tlExample.node[108].appl generatedWSAs 0
scalar tlExample.node[108].appl receivedWSAs 54
scalar tlExample.node[108].nic.phy80211p busyTime 0.0077311913080866
scalar tlExample.node[108].nic.mac1609_4 ReceivedUnicastPackets 0
scalar tlExample.node[108].nic.mac1609_4 ReceivedBroadcasts 1008
scalar tlExample.node[108].nic.mac1609_4 SentPackets 95
scalar tlExample.node[108].nic.mac1609_4 SentAcknowledgements 0
scalar tlExample.node[108].nic.mac1609_4 RetriesExceeded 0
scalar tlExample.node[108].nic.mac1609_4 SNIRLostPackets 9441
scalar tlExample.node[108].nic.mac1609_4 RXTXLostPackets 4
scalar tlExample.node[108].nic.mac1609_4 TotalLostPackets 9445
scalar tlExample.node[108].nic.mac1609_4 DroppedPacketsInMac 0
scalar tlExample.node[108].nic.mac1609_4 TooLittleTime 0
scalar tlExample.node[108].nic.mac1609_4 TimesIntoBackoff 104
scalar tlExample.node[108].nic.mac1609_4 SlotsBackoff 152
scalar tlExample.node[108].nic.mac1609_4 NumInternalContention 0
scalar tlExample.node[108].nic.mac1609_4 totalBusyTime 0.513247
scalar tlExample.node[108].nic.mac1609_4 retriesExceeded:count 0
attr source org_car2x_veins_modules_mac_sigRetriesExceeded
scalar tlExample.node[108].nic.mac1609_4 sentAcks:count 0
attr source org_car2x_veins_modules_mac_sigSentAck
scalar tlExample.node[108].nic.mac1609_4 sentPackets:count 95
attr source org_car2x_veins_modules_mac_sigSentPacket
scalar tlExample.node[108].nic.mac1609_4 collisions:count 0
attr source org_car2x_veins_modules_mac_sigCollision
scalar tlExample.node[108].nic.mac1609_4 channelBusy:timeavg 0.0077124063018679
attr source org_car2x_veins_modules_mac_sigChannelBusy
scalar tlExample.node[108].veinsmobility startTime 15.4
scalar tlExample.node[108].veinsmobility totalTime 66.5
scalar tlExample.node[108].veinsmobility stopTime 81.954296678931
scalar tlExample.node[108].veinsmobility minSpeed 0.34445896340767
scalar tlExample.node[108].veinsmobility maxSpeed 14.071590738329
scalar tlExample.node[108].veinsmobility totalDistance 833.70081504523
scalar tlExample.node[108].veinsmobility totalCO2Emission 241.67511404532
scalar tlExample.node[124].appl generatedWSMs 88
scalar tlExample.node[124].appl receivedWSMs 957
scalar tlExample.node[124].appl generatedBSMs 0
scalar tlExample.node[124].appl receivedBSMs 0
scalar tlExample.node[124].appl generatedWSAs 0
scalar tlExample.node[124].appl receivedWSAs 50
scalar tlExample.node[124].nic.phy80211p busyTime 0.0078949661397551
scalar tlExample.node[124].nic.mac1609_4 ReceivedUnicastPackets 0
scalar tlExample.node[124].nic.mac1609_4 ReceivedBroadcasts 1007
scalar tlExample.node[124].nic.mac1609_4 SentPackets 88
scalar tlExample.node[124].nic.mac1609_4 SentAcknowledgements 0
scalar tlExample.node[124].nic.mac1609_4 RetriesExceeded 0
scalar tlExample.node[124].nic.mac1609_4 SNIRLostPackets 9286
scalar tlExample.node[124].nic.mac1609_4 RXTXLostPackets 2
scalar tlExample.node[124].nic.mac1609_4 TotalLostPackets 9288
scalar tlExample.node[124].nic.mac1609_4 DroppedPacketsInMac 0
scalar tlExample.node[124].nic.mac1609_4 TooLittleTime 0
scalar tlExample.node[124].nic.mac1609_4 TimesIntoBackoff 94
scalar tlExample.node[124].nic.mac1609_4 SlotsBackoff 141
scalar tlExample.node[124].nic.mac1609_4 NumInternalContention 0
scalar tlExample.node[124].nic.mac1609_4 totalBusyTime 0.504808
scalar tlExample.node[124].nic.mac1609_4 retriesExceeded:count 0
attr source org_car2x_veins_modules_mac_sigRetriesExceeded
scalar tlExample.node[124].nic.mac1609_4 sentAcks:count 0
attr source org_car2x_veins_modules_mac_sigSentAck
scalar tlExample.node[124].nic.mac1609_4 sentPackets:count 88
attr source org_car2x_veins_modules_mac_sigSentPacket
scalar tlExample.node[124].nic.mac1609_4 collisions:count 0
attr source org_car2x_veins_modules_mac_sigCollision
scalar tlExample.node[124].nic.mac1609_4 channelBusy:timeavg 0.0078693830064037
attr source org_car2x_veins_modules_mac_sigChannelBusy
scalar tlExample.node[124].veinsmobility startTime 17.8
scalar tlExample.node[124].veinsmobility totalTime 64.1
scalar tlExample.node[124].veinsmobility stopTime 81.954296678931
scalar tlExample.node[124].veinsmobility minSpeed 0.34916678627953
scalar tlExample.node[124].veinsmobility maxSpeed 15.742840516889
scalar tlExample.node[124].veinsmobility totalDistance 812.75160657618
scalar tlExample.node[124].veinsmobility totalCO2Emission 236.73844482049
scalar tlExample.node[140].appl generatedWSMs 93
scalar tlExample.node[140].appl receivedWSMs 937
scalar tlExample.node[140].appl generatedBSMs 0
scalar tlExample.node[140].appl receivedBSMs 0
scalar tlExample.node[140].appl generatedWSAs 0
scalar tlExample.node[140].appl receivedWSAs 45
scalar tlExample.node[140].nic.phy80211p busyTime 0.0077840479228751
scalar tlExample.node[140].nic.mac1609_4 ReceivedUnicastPackets 0
scalar tlExample.node[140].nic.mac1609_4 ReceivedBroadcasts 982
scalar tlExample.node[140].nic.mac1609_4 SentPackets 93
scalar tlExample.node[140].nic.mac1609_4 SentAcknowledgements 0
scalar tlExample.node[140].nic.mac1609_4 RetriesExceeded 0
scalar tlExample.node[140].nic.mac1609_4 SNIRLostPackets 8776
scalar tlExample.node[140].nic.mac1609_4 RXTXLostPackets 1
scalar tlExample.node[140].nic.mac1609_4 TotalLostPackets 8777
scalar tlExample.node[140].nic.mac1609_4 DroppedPacketsInMac 0
scalar tlExample.node[140].nic.mac1609_4 TooLittleTime 0
scalar tlExample.node[140].nic.mac1609_4 TimesIntoBackoff 101
scalar tlExample.node[140].nic.mac1609_4 SlotsBackoff 157
scalar tlExample.node[140].nic.mac1609_4 NumInternalContention 0
scalar tlExample.node[140].nic.mac1609_4 totalBusyTime 0.479197
scalar tlExample.node[140].nic.mac1609_4 retriesExceeded:count 0
attr source org_car2x_veins_modules_mac_sigRetriesExceeded
scalar tlExample.node[140].nic.mac1609_4 sentAcks:count 0
attr source org_car2x_veins_modules_mac_sigSentAck
scalar tlExample.node[140].nic.mac1609_4 sentPackets:count 93
attr source org_car2x_veins_modules_mac_sigSentPacket
scalar tlExample.node[140].nic.mac1609_4 collisions:count 0
attr source org_car2x_veins_modules_mac_sigCollision
scalar tlExample.node[140].nic.mac1609_4 channelBusy:timeavg 0.0077730751953372
attr source org_car2x_veins_modules_mac_sigChannelBusy
scalar tlExample.node[140].veinsmobility startTime 20.3
scalar tlExample.node[140].veinsmobility totalTime 61.6
scalar tlExample.node[140].veinsmobility stopTime 81.954296678931
scalar tlExample.node[140].veinsmobility minSpeed 0.31518576966366
scalar tlExample.node[140].veinsmobility maxSpeed 12.203337625679
scalar tlExample.node[140].veinsmobility totalDistance 702.74561731916
scalar tlExample.node[140].veinsmobility totalCO2Emission 199.46379449798
scalar tlExample.node[156].appl generatedWSMs 87
scalar tlExample.node[156].appl receivedWSMs 928
scalar tlExample.node[156].appl generatedBSMs 0
scalar tlExample.node[156].appl receivedBSMs 0
scalar tlExample.node[156].appl generatedWSAs 0
scalar tlExample.node[156].appl receivedWSAs 45
scalar tlExample.node[156].nic.phy80211p busyTime 0.0079528167535948
scalar tlExample.node[156].nic.mac1609_4 ReceivedUnicastPackets 0
scalar tlExample.node[156].nic.mac1609_4 ReceivedBroadcasts 973
scalar tlExample.node[156].nic.mac1609_4 SentPackets 87
scalar tlExample.node[156].nic.mac1609_4 SentAcknowledgements 0
scalar tlExample.node[156].nic.mac1609_4 RetriesExceeded 0
scalar tlExample.node[156].nic.mac1609_4 SNIRLostPackets 8582
scalar tlExample.node[156].nic.mac1609_4 RXTXLostPackets 0
scalar tlExample.node[156].nic.mac1609_4 TotalLostPackets 8582
scalar tlExample.node[156].nic.mac1609_4 DroppedPacketsInMac 0
scalar tlExample.node[156].nic.mac1609_4 TooLittleTime 0
scalar tlExample.node[156].nic.mac1609_4 TimesIntoBackoff 95
scalar tlExample.node[156].nic.mac1609_4 SlotsBackoff 136
scalar tlExample.node[156].nic.mac1609_4 NumInternalContention 0
scalar tlExample.node[156].nic.mac1609_4 totalBusyTime 0.468871
scalar tlExample.node[156].nic.mac1609_4 retriesExceeded:count 0
attr source org_car2x_veins_modules_mac_sigRetriesExceeded
scalar tlExample.node[156].nic.mac1609_4 sentAcks:count 0
attr source org_car2x_veins_modules_mac_sigSentAck
scalar tlExample.node[156].nic.mac1609_4 sentPackets:count 87
attr source org_car2x_veins_modules_mac_sigSentPacket
scalar tlExample.node[156].nic.mac1609_4 collisions:count 0
attr source org_car2x_veins_modules_mac_sigCollision
scalar tlExample.node[156].nic.mac1609_4 channelBusy:timeavg 0.0079404456945342
attr source org_car2x_veins_modules_mac_sigChannelBusy
scalar tlExample.node[156].veinsmobility startTime 22.9
scalar tlExample.node[156].veinsmobility totalTime 59
scalar tlExample.node[156].veinsmobility stopTime 81.954296678931
scalar tlExample.node[156].veinsmobility minSpeed 0.33825177513645
scalar tlExample.node[156].veinsmobility maxSpeed 13.619754184872
scalar tlExample.node[156].veinsmobility totalDistance 682.09547148991
scalar tlExample.node[156].veinsmobility totalCO2Emission 203.67315614386
scalar tlExample.node[2].appl generatedWSMs 120
scalar tlExample.node[2].appl receivedWSMs 897
scalar tlExample.node[2].appl generatedBSMs 0
scalar tlExample.node[2].appl receivedBSMs 0
scalar tlExample.node[2].appl generatedWSAs 0
scalar tlExample.node[2].appl receivedWSAs 75
scalar tlExample.node[2].nic.phy80211p busyTime 0.0069721935580068
scalar tlExample.node[2].nic.mac1609_4 ReceivedUnicastPackets 0
scalar tlExample.node[2].nic.mac1609_4 ReceivedBroadcasts 972
scalar tlExample.node[2].nic.mac1609_4 SentPackets 120
scalar tlExample.node[2].nic.mac1609_4 SentAcknowledgements 0
scalar tlExample.node[2].nic.mac1609_4 RetriesExceeded 0
scalar tlExample.node[2].nic.mac1609_4 SNIRLostPackets 10572
scalar tlExample.node[2].nic.mac1609_4 RXTXLostPackets 2
scalar tlExample.node[2].nic.mac1609_4 TotalLostPackets 10574
scalar tlExample.node[2].nic.mac1609_4 DroppedPacketsInMac 0
scalar tlExample.node[2].nic.mac1609_4 TooLittleTime 0
scalar tlExample.node[2].nic.mac1609_4 TimesIntoBackoff 130
scalar tlExample.node[2].nic.mac1609_4 SlotsBackoff 192
scalar tlExample.node[2].nic.mac1609_4 NumInternalContention 0
scalar tlExample.node[2].nic.mac1609_4 totalBusyTime 0.568848362263
scalar tlExample.node[2].nic.mac1609_4 retriesExceeded:count 0
attr source org_car2x_veins_modules_mac_sigRetriesExceeded
scalar tlExample.node[2].nic.mac1609_4 sentAcks:count 0
attr source org_car2x_veins_modules_mac_sigSentAck
scalar tlExample.node[2].nic.mac1609_4 sentPackets:count 120
attr source org_car2x_veins_modules_mac_sigSentPacket
scalar tlExample.node[2].nic.mac1609_4 collisions:count 0
attr source org_car2x_veins_modules_mac_sigCollision
scalar tlExample.node[2].nic.mac1609_4 channelBusy:timeavg 0.0069494836057572
attr source org_car2x_veins_modules_mac_sigChannelBusy
scalar tlExample.node[2].veinsmobility startTime 0.1
scalar tlExample.node[2].veinsmobility totalTime 81.8
scalar tlExample.node[2].veinsmobility stopTime 81.954296678931
scalar tlExample.node[2].veinsmobility minSpeed 0.33922227667295
scalar tlExample.node[2].veinsmobility maxSpeed 13.354969308522
scalar tlExample.node[2].veinsmobility totalDistance 1036.0775366679
scalar tlExample.node[2].veinsmobility totalCO2Emission 281.26150916277
scalar tlExample.node[21].appl generatedWSMs 111
scalar tlExample.node[21].appl receivedWSMs 906
scalar tlExample.node[21].appl generatedBSMs 0
scalar tlExample.node[21].appl receivedBSMs 0
scalar tlExample.node[21].appl generatedWSAs 0
scalar tlExample.node[21].appl receivedWSAs 66
scalar tlExample.node[21].nic.phy80211p busyTime 0.0069500962529031
scalar tlExample.node[21].nic.mac1609_4 ReceivedUnicastPackets 0
scalar tlExample.node[21].nic.mac1609_4 ReceivedBroadcasts 972
scalar tlExample.node[21].nic.mac1609_4 SentPackets 111
scalar tlExample.node[21].nic.mac1609_4 SentAcknowledgements 0
scalar tlExample.node[21].nic.mac1609_4 RetriesExceeded 0
scalar tlExample.node[21].nic.mac1609_4 SNIRLostPackets 10189
scalar tlExample.node[21].nic.mac1609_4 RXTXLostPackets 2
scalar tlExample.node[21].nic.mac1609_4 TotalLostPackets 10191
scalar tlExample.node[21].nic.mac1609_4 DroppedPacketsInMac 0
scalar tlExample.node[21].nic.mac1609_4 TooLittleTime 0
scalar tlExample.node[21].nic.mac1609_4 TimesIntoBackoff 118
scalar tlExample.node[21].nic.mac1609_4 SlotsBackoff 180
scalar tlExample.node[21].nic.mac1609_4 NumInternalContention 0
scalar tlExample.node[21].nic.mac1609_4 totalBusyTime 0.549711
scalar tlExample.node[21].nic.mac1609_4 retriesExceeded:count 0
attr source org_car2x_veins_modules_mac_sigRetriesExceeded
scalar tlExample.node[21].nic.mac1609_4 sentAcks:count 0
attr source org_car2x_veins_modules_mac_sigSentAck
scalar tlExample.node[21].nic.mac1609_4 sentPackets:count 111
attr source org_car2x_veins_modules_mac_sigSentPacket
scalar tlExample.node[21].nic.mac1609_4 collisions:count 0
attr source org_car2x_veins_modules_mac_sigCollision
scalar tlExample.node[21].nic.mac1609_4 channelBusy:timeavg 0.0069278620832004
attr source org_car2x_veins_modules_mac_sigChannelBusy
scalar tlExample.node[21].veinsmobility startTime 2.6
scalar tlExample.node[21].veinsmobility totalTime 79.3
scalar tlExample.node[21].veinsmobility stopTime 81.954296678931
scalar tlExample.node[21].veinsmobility minSpeed 0.32336710449192
scalar tlExample.node[21].veinsmobility maxSpeed 12.517792466746
scalar tlExample.node[21].veinsmobility totalDistance 939.41563614101
scalar tlExample.node[21].veinsmobility totalCO2Emission 256.19492117251
scalar tlExample.node[47].appl generatedWSMs 118
scalar tlExample.node[47].appl receivedWSMs 900
scalar tlExample.node[47].appl generatedBSMs 0
scalar tlExample.node[47].appl receivedBSMs 0
scalar tlExample.node[47].appl generatedWSAs 0
scalar tlExample.node[47].appl receivedWSAs 62
scalar tlExample.node[47].nic.phy80211p busyTime 0.0070976321429029
scalar tlExample.node[47].nic.mac1609_4 ReceivedUnicastPackets 0
scalar tlExample.node[47].nic.mac1609_4 ReceivedBroadcasts 962
scalar tlExample.node[47].nic.mac1609_4 SentPackets 118
scalar tlExample.node[47].nic.mac1609_4 SentAcknowledgements 0
scalar tlExample.node[47].nic.mac1609_4 RetriesExceeded 0
scalar tlExample.node[47].nic.mac1609_4 SNIRLostPackets 10055
scalar tlExample.node[47].nic.mac1609_4 RXTXLostPackets 0
scalar tlExample.node[47].nic.mac1609_4 TotalLostPackets 10055
scalar tlExample.node[47].nic.mac1609_4 DroppedPacketsInMac 0
scalar tlExample.node[47].nic.mac1609_4 TooLittleTime 0
scalar tlExample.node[47].nic.mac1609_4 TimesIntoBackoff 128
scalar tlExample.node[47].nic.mac1609_4 SlotsBackoff 179
scalar tlExample.node[47].nic.mac1609_4 NumInternalContention 0
scalar tlExample.node[47].nic.mac1609_4 totalBusyTime 0.542694
scalar tlExample.node[47].nic.mac1609_4 retriesExceeded:count 0
attr source org_car2x_veins_modules_mac_sigRetriesExceeded
scalar tlExample.node[47].nic.mac1609_4 sentAcks:count 0
attr source org_car2x_veins_modules_mac_sigSentAck
scalar tlExample.node[47].nic.mac1609_4 sentPackets:count 118
attr source org_car2x_veins_modules_mac_sigSentPacket
scalar tlExample.node[47].nic.mac1609_4 collisions:count 0
attr source org_car2x_veins_modules_mac_sigCollision
scalar tlExample.node[47].nic.mac1609_4 channelBusy:timeavg 0.0070803414982369
attr source org_car2x_veins_modules_mac_sigChannelBusy
scalar tlExample.node[47].veinsmobility startTime 5.3
scalar tlExample.node[47].veinsmobility totalTime 76.6
scalar tlExample.node[47].veinsmobility stopTime 81.954296678931
scalar tlExample.node[47].veinsmobility minSpeed 0.32801639555022
scalar tlExample.node[47].veinsmobility maxSpeed 13.902359668843
scalar tlExample.node[47].veinsmobility totalDistance 918.43376068689
scalar tlExample.node[47].veinsmobility totalCO2Emission 263.82133894592
scalar tlExample.node[61].appl generatedWSMs 106
scalar tlExample.node[61].appl receivedWSMs 912
scalar tlExample.node[61].appl generatedBSMs 0
scalar tlExample.node[61].appl receivedBSMs 0
scalar tlExample.node[61].appl generatedWSAs 0
scalar tlExample.node[61].appl receivedWSAs 59
scalar tlExample.node[61].nic.phy80211p busyTime 0.0070508119342534
scalar tlExample.node[61].nic.mac1609_4 ReceivedUnicastPackets 0
scalar tlExample.node[61].nic.mac1609_4 ReceivedBroadcasts 971
scalar tlExample.node[61].nic.mac1609_4 SentPackets 106
scalar tlExample.node[61].nic.mac1609_4 SentAcknowledgements 0
scalar tlExample.node[61].nic.mac1609_4 RetriesExceeded 0
scalar tlExample.node[61].nic.mac1609_4 SNIRLostPackets 9623
scalar tlExample.node[61].nic.mac1609_4 RXTXLostPackets 2
scalar tlExample.node[61].nic.mac1609_4 TotalLostPackets 9625
scalar tlExample.node[61].nic.mac1609_4 DroppedPacketsInMac 0
scalar tlExample.node[61].nic.mac1609_4 TooLittleTime 0
scalar tlExample.node[61].nic.mac1609_4 TimesIntoBackoff 113
scalar tlExample.node[61].nic.mac1609_4 SlotsBackoff 172
scalar tlExample.node[61].nic.mac1609_4 NumInternalContention 0
scalar tlExample.node[61].nic.mac1609_4 totalBusyTime 0.521802
scalar tlExample.node[61].nic.mac1609_4 retriesExceeded:count 0
attr source org_car2x_veins_modules_mac_sigRetriesExceeded
scalar tlExample.node[61].nic.mac1609_4 sentAcks:count 0
attr source org_car2x_veins_modules_mac_sigSentAck
scalar tlExample.node[61].nic.mac1609_4 sentPackets:count 106
attr source org_car2x_veins_modules_mac_sigSentPacket
scalar tlExample.node[61].nic.mac1609_4 collisions:count 0
attr source org_car2x_veins_modules_mac_sigCollision
scalar tlExample.node[61].nic.mac1609_4 channelBusy:timeavg 0.0070373060423516
attr source org_car2x_veins_modules_mac_sigChannelBusy
scalar tlExample.node[61].veinsmobility startTime 7.8
scalar tlExample.node[61].veinsmobility totalTime 74.1
scalar tlExample.node[61].veinsmobility stopTime 81.954296678931
scalar tlExample.node[61].veinsmobility minSpeed 0.33814091622946
scalar tlExample.node[61].veinsmobility maxSpeed 11.809619969365
scalar tlExample.node[61].veinsmobility totalDistance 827.43682065109
scalar tlExample.node[61].veinsmobility totalCO2Emission 228.2571955675
scalar tlExample.node[76].appl generatedWSMs 109
scalar tlExample.node[76].appl receivedWSMs 910
scalar tlExample.node[76].appl generatedBSMs 0
scalar tlExample.node[76].appl receivedBSMs 0
scalar tlExample.node[76].appl generatedWSAs 0
scalar tlExample.node[76].appl receivedWSAs 57
scalar tlExample.node[76].nic.phy80211p busyTime 0.007212630978931
scalar tlExample.node[76].nic.mac1609_4 ReceivedUnicastPackets 0
scalar tlExample.node[76].nic.mac1609_4 ReceivedBroadcasts 967
scalar tlExample.node[76].nic.mac1609_4 SentPackets 109
scalar tlExample.node[76].nic.mac1609_4 SentAcknowledgements 0
scalar tlExample.node[76].nic.mac1609_4 RetriesExceeded 0
scalar tlExample.node[76].nic.mac1609_4 SNIRLostPackets 9511
scalar tlExample.node[76].nic.mac1609_4 RXTXLostPackets 1
scalar tlExample.node[76].nic.mac1609_4 TotalLostPackets 9512
scalar tlExample.node[76].nic.mac1609_4 DroppedPacketsInMac 0
scalar tlExample.node[76].nic.mac1609_4 TooLittleTime 0
scalar tlExample.node[76].nic.mac1609_4 TimesIntoBackoff 119
scalar tlExample.node[76].nic.mac1609_4 SlotsBackoff 156
scalar tlExample.node[76].nic.mac1609_4 NumInternalContention 0
scalar tlExample.node[76].nic.mac1609_4 totalBusyTime 0.516092119733
scalar tlExample.node[76].nic.mac1609_4 retriesExceeded:count 0
attr source org_car2x_veins_modules_mac_sigRetriesExceeded
scalar tlExample.node[76].nic.mac1609_4 sentAcks:count 0
attr source org_car2x_veins_modules_mac_sigSentAck
scalar tlExample.node[76].nic.mac1609_4 sentPackets:count 109
attr source org_car2x_veins_modules_mac_sigSentPacket
scalar tlExample.node[76].nic.mac1609_4 collisions:count 0
attr source org_car2x_veins_modules_mac_sigCollision
scalar tlExample.node[76].nic.mac1609_4 channelBusy:timeavg 0.0072024790678983
attr source org_car2x_veins_modules_mac_sigChannelBusy
scalar tlExample.node[76].veinsmobility startTime 10.3
scalar tlExample.node[76].veinsmobility totalTime 71.6
scalar tlExample.node[76].veinsmobility stopTime 81.954296678931
scalar tlExample.node[76].veinsmobility minSpeed 0.33041620894335
scalar tlExample.node[76].veinsmobility maxSpeed 12.858860474315
scalar tlExample.node[76].veinsmobility totalDistance 807.19457661942
scalar tlExample.node[76].veinsmobility totalCO2Emission 238.35491285583
scalar tlExample.node[94].appl generatedWSMs 102
scalar tlExample.node[94].appl receivedWSMs 916
scalar tlExample.node[94].appl generatedBSMs 0
scalar tlExample.node[94].appl receivedBSMs 0
scalar tlExample.node[94].appl generatedWSAs 0
scalar tlExample.node[94].appl receivedWSAs 55
scalar tlExample.node[94].nic.phy80211p busyTime 0.0073882730624585
scalar tlExample.node[94].nic.mac1609_4 ReceivedUnicastPackets 0
scalar tlExample.node[94].nic.mac1609_4 ReceivedBroadcasts 971
scalar tlExample.node[94].nic.mac1609_4 SentPackets 102
scalar tlExample.node[94].nic.mac1609_4 SentAcknowledgements 0
scalar tlExample.node[94].nic.mac1609_4 RetriesExceeded 0
scalar tlExample.node[94].nic.mac1609_4 SNIRLostPackets 9382
scalar tlExample.node[94].nic.mac1609_4 RXTXLostPackets 3
scalar tlExample.node[94].nic.mac1609_4 TotalLostPackets 9385
scalar tlExample.node[94].nic.mac1609_4 DroppedPacketsInMac 0
scalar tlExample.node[94].nic.mac1609_4 TooLittleTime 0
scalar tlExample.node[94].nic.mac1609_4 TimesIntoBackoff 113
scalar tlExample.node[94].nic.mac1609_4 SlotsBackoff 140
scalar tlExample.node[94].nic.mac1609_4 NumInternalContention 0
scalar tlExample.node[94].nic.mac1609_4 totalBusyTime 0.509382
scalar tlExample.node[94].nic.mac1609_4 retriesExceeded:count 0
attr source org_car2x_veins_modules_mac_sigRetriesExceeded
scalar tlExample.node[94].nic.mac1609_4 sentAcks:count 0
attr source org_car2x_veins_modules_mac_sigSentAck
scalar tlExample.node[94].nic.mac1609_4 sentPackets:count 102
attr source org_car2x_veins_modules_mac_sigSentPacket
scalar tlExample.node[94].nic.mac1609_4 collisions:count 0
attr source org_car2x_veins_modules_mac_sigCollision
scalar tlExample.node[94].nic.mac1609_4 channelBusy:timeavg 0.0073771864779183
attr source org_car2x_veins_modules_mac_sigChannelBusy
scalar tlExample.node[94].veinsmobility startTime 12.9
scalar tlExample.node[94].veinsmobility totalTime 69
scalar tlExample.node[94].veinsmobility stopTime 81.954296678931
scalar tlExample.node[94].veinsmobility minSpeed 0.34974643201684
scalar tlExample.node[94].veinsmobility maxSpeed 13.535198297708
scalar tlExample.node[94].veinsmobility totalDistance 786.91167419712
scalar tlExample.node[94].veinsmobility totalCO2Emission 230.60462411815
scalar tlExample.node[109].appl generatedWSMs 95
scalar tlExample.node[109].appl receivedWSMs 919
scalar tlExample.node[109].appl generatedBSMs 0
scalar tlExample.node[109].appl receivedBSMs 0
scalar tlExample.node[109].appl generatedWSAs 0
scalar tlExample.node[109].appl receivedWSAs 52
scalar tlExample.node[109].nic.phy80211p busyTime 0.0075621864419655
scalar tlExample.node[109].nic.mac1609_4 ReceivedUnicastPackets 0
scalar tlExample.node[109].nic.mac1609_4 ReceivedBroadcasts 971
scalar tlExample.node[109].nic.mac1609_4 SentPackets 95
scalar tlExample.node[109].nic.mac1609_4 SentAcknowledgements 0
scalar tlExample.node[109].nic.mac1609_4 RetriesExceeded 0
scalar tlExample.node[109].nic.mac1609_4 SNIRLostPackets 9249
scalar tlExample.node[109].nic.mac1609_4 RXTXLostPackets 1
scalar tlExample.node[109].nic.mac1609_4 TotalLostPackets 9250
scalar tlExample.node[109].nic.mac1609_4 DroppedPacketsInMac 0
scalar tlExample.node[109].nic.mac1609_4 TooLittleTime 0
scalar tlExample.node[109].nic.mac1609_4 TimesIntoBackoff 105
scalar tlExample.node[109].nic.mac1609_4 SlotsBackoff 141
scalar tlExample.node[109].nic.mac1609_4 NumInternalContention 0
scalar tlExample.node[109].nic.mac1609_4 totalBusyTime 0.502191
scalar tlExample.node[109].nic.mac1609_4 retriesExceeded:count 0
attr source org_car2x_veins_modules_mac_sigRetriesExceeded
scalar tlExample.node[109].nic.mac1609_4 sentAcks:count 0
attr source org_car2x_veins_modules_mac_sigSentAck
scalar tlExample.node[109].nic.mac1609_4 sentPackets:count 95
attr source org_car2x_veins_modules_mac_sigSentPacket
scalar tlExample.node[109].nic.mac1609_4 collisions:count 0
attr source org_car2x_veins_modules_mac_sigCollision
scalar tlExample.node[109].nic.mac1609_4 channelBusy:timeavg 0.007546250500908
attr source org_car2x_veins_modules_mac_sigChannelBusy
scalar tlExample.node[109].veinsmobility startTime 15.4
scalar tlExample.node[109].veinsmobility totalTime 66.5
scalar tlExample.node[109].veinsmobility stopTime 81.954296678931
scalar tlExample.node[109].veinsmobility minSpeed 0.34899183698697
scalar tlExample.node[109].veinsmobility maxSpeed 13.508599607707
scalar tlExample.node[109].veinsmobility totalDistance 766.68301827149
scalar tlExample.node[109].veinsmobility totalCO2Emission 217.4055998212
scalar tlExample.node[125].appl generatedWSMs 88
scalar tlExample.node[125].appl receivedWSMs 921
scalar tlExample.node[125].appl generatedBSMs 0
scalar tlExample.node[125].appl receivedBSMs 0
scalar tlExample.node[125].appl generatedWSAs 0
scalar tlExample.node[125].appl receivedWSAs 50
scalar tlExample.node[125].nic.phy80211p busyTime 0.0077384348232645
scalar tlExample.node[125].nic.mac1609_4 ReceivedUnicastPackets 0
scalar tlExample.node[125].nic.mac1609_4 ReceivedBroadcasts 971
scalar tlExample.node[125].nic.mac1609_4 SentPackets 88
scalar tlExample.node[125].nic.mac1609_4 SentAcknowledgements 0
scalar tlExample.node[125].nic.mac1609_4 RetriesExceeded 0
scalar tlExample.node[125].nic.mac1609_4 SNIRLostPackets 9103
scalar tlExample.node[125].nic.mac1609_4 RXTXLostPackets 1
scalar tlExample.node[125].nic.mac1609_4 TotalLostPackets 9104
scalar tlExample.node[125].nic.mac1609_4 DroppedPacketsInMac 0
scalar tlExample.node[125].nic.mac1609_4 TooLittleTime 0
scalar tlExample.node[125].nic.mac1609_4 TimesIntoBackoff 97
scalar tlExample.node[125].nic.mac1609_4 SlotsBackoff 132
scalar tlExample.node[125].nic.mac1609_4 NumInternalContention 0
scalar tlExample.node[125].nic.mac1609_4 totalBusyTime 0.494472
scalar tlExample.node[125].nic.mac1609_4 retriesExceeded:count 0
attr source org_car2x_veins_modules_mac_sigRetriesExceeded
scalar tlExample.node[125].nic.mac1609_4 sentAcks:count 0
attr source org_car2x_veins_modules_mac_sigSentAck
scalar tlExample.node[125].nic.mac1609_4 sentPackets:count 88
attr source org_car2x_veins_modules_mac_sigSentPacket
scalar tlExample.node[125].nic.mac1609_4 collisions:count 0
attr source org_car2x_veins_modules_mac_sigCollision
scalar tlExample.node[125].nic.mac1609_4 channelBusy:timeavg 0.0077202684402375
attr source org_car2x_veins_modules_mac_sigChannelBusy
scalar tlExample.node[125].veinsmobility startTime 17.9
scalar tlExample.node[125].veinsmobility totalTime 64
scalar tlExample.node[125].veinsmobility stopTime 81.954296678931
scalar tlExample.node[125].veinsmobility minSpeed 0.32061680481886
scalar tlExample.node[125].veinsmobility maxSpeed 14.473375934641
scalar tlExample.node[125].veinsmobility totalDistance 746.51437124428
scalar tlExample.node[125].veinsmobility totalCO2Emission 217.11887666175
scalar tlExample.node[142].appl generatedWSMs 87
scalar tlExample.node[142].appl receivedWSMs 911
scalar tlExample.node[142].appl generatedBSMs 0
scalar tlExample.node[142].appl receivedBSMs 0
scalar tlExample.node[142].appl generatedWSAs 0
scalar tlExample.node[142].appl receivedWSAs 47
scalar tlExample.node[142].nic.phy80211p busyTime 0.0078989432185037
scalar tlExample.node[142].nic.mac1609_4 ReceivedUnicastPackets 0
scalar tlExample.node[142].nic.mac1609_4 ReceivedBroadcasts 958
scalar tlExample.node[142].nic.mac1609_4 SentPackets 87
scalar tlExample.node[142].nic.mac1609_4 SentAcknowledgements 0
scalar tlExample.node[142].nic.mac1609_4 RetriesExceeded 0
scalar tlExample.node[142].nic.mac1609_4 SNIRLostPackets 8914
scalar tlExample.node[142].nic.mac1609_4 RXTXLostPackets 0
scalar tlExample.node[142].nic.mac1609_4 TotalLostPackets 8914
scalar tlExample.node[142].nic.mac1609_4 DroppedPacketsInMac 0
scalar tlExample.node[142].nic.mac1609_4 TooLittleTime 0
scalar tlExample.node[142].nic.mac1609_4 TimesIntoBackoff 94
scalar tlExample.node[142].nic.mac1609_4 SlotsBackoff 114
scalar tlExample.node[142].nic.mac1609_4 NumInternalContention 0
scalar tlExample.node[142].nic.mac1609_4 totalBusyTime 0.484215
scalar tlExample.node[142].nic.mac1609_4 retriesExceeded:count 0
attr source org_car2x_veins_modules_mac_sigRetriesExceeded
scalar tlExample.node[142].nic.mac1609_4 sentAcks:count 0
attr source org_car2x_veins_modules_mac_sigSentAck
scalar tlExample.node[142].nic.mac1609_4 sentPackets:count 87
attr source org_car2x_veins_modules_mac_sigSentPacket
scalar tlExample.node[142].nic.mac1609_4 collisions:count 0
attr source org_car2x_veins_modules_mac_sigCollision
scalar tlExample.node[142].nic.mac1609_4 channelBusy:timeavg 0.0078799914889106
attr source org_car2x_veins_modules_mac_sigChannelBusy
scalar tlExample.node[142].veinsmobility startTime 20.5
scalar tlExample.node[142].veinsmobility totalTime 61.4
scalar tlExample.node[142].veinsmobility stopTime 81.954296678931
scalar tlExample.node[142].veinsmobility minSpeed 0.31512380405911
scalar tlExample.node[142].veinsmobility maxSpeed 15.71526038188
scalar tlExample.node[142].veinsmobility totalDistance 726.20471622974
scalar tlExample.node[142].veinsmobility totalCO2Emission 213.76041511775
scalar tlExample.node[157].appl generatedWSMs 85
scalar tlExample.node[157].appl receivedWSMs 899
scalar tlExample.node[157].appl generatedBSMs 0
scalar tlExample.node[157].appl receivedBSMs 0
scalar tlExample.node[157].appl generatedWSAs 0
scalar tlExample.node[157].appl receivedWSAs 45
scalar tlExample.node[157].nic.phy80211p busyTime 0.0080303047647531
scalar tlExample.node[157].nic.mac1609_4 ReceivedUnicastPackets 0
scalar tlExample.node[157].nic.mac1609_4 ReceivedBroadcasts 944
scalar tlExample.node[157].nic.mac1609_4 SentPackets 85
scalar tlExample.node[157].nic.mac1609_4 SentAcknowledgements 0
scalar tlExample.node[157].nic.mac1609_4 RetriesExceeded 0
scalar tlExample.node[157].nic.mac1609_4 SNIRLostPackets 8705
scalar tlExample.node[157].nic.mac1609_4 RXTXLostPackets 2
scalar tlExample.node[157].nic.mac1609_4 TotalLostPackets 8707
scalar tlExample.node[157].nic.mac1609_4 DroppedPacketsInMac 0
scalar tlExample.node[157].nic.mac1609_4 TooLittleTime 0
scalar tlExample.node[157].nic.mac1609_4 TimesIntoBackoff 93
scalar tlExample.node[157].nic.mac1609_4 SlotsBackoff 123
scalar tlExample.node[157].nic.mac1609_4 NumInternalContention 0
scalar tlExample.node[157].nic.mac1609_4 totalBusyTime 0.473157
scalar tlExample.node[157].nic.mac1609_4 retriesExceeded:count 0
attr source org_car2x_veins_modules_mac_sigRetriesExceeded
scalar tlExample.node[157].nic.mac1609_4 sentAcks:count 0
attr source org_car2x_veins_modules_mac_sigSentAck
scalar tlExample.node[157].nic.mac1609_4 sentPackets:count 85
attr source org_car2x_veins_modules_mac_sigSentPacket
scalar tlExample.node[157].nic.mac1609_4 collisions:count 0
attr source org_car2x_veins_modules_mac_sigCollision
scalar tlExample.node[157].nic.mac1609_4 channelBusy:timeavg 0.008012986872347
attr source org_car2x_veins_modules_mac_sigChannelBusy
scalar tlExample.node[157].veinsmobility startTime 22.9
scalar tlExample.node[157].veinsmobility totalTime 59
scalar tlExample.node[157].veinsmobility stopTime 81.954296678931
scalar tlExample.node[157].veinsmobility minSpeed 0.32583422643715
scalar tlExample.node[157].veinsmobility maxSpeed 13.994193623323
scalar tlExample.node[157].veinsmobility totalDistance 705.97907029491
scalar tlExample.node[157].veinsmobility totalCO2Emission 205.29392775942
scalar tlExample.node[3].appl generatedWSMs 135
scalar tlExample.node[3].appl receivedWSMs 1753
scalar tlExample.node[3].appl generatedBSMs 0
scalar tlExample.node[3].appl receivedBSMs 0
scalar tlExample.node[3].appl generatedWSAs 0
scalar tlExample.node[3].appl receivedWSAs 76
scalar tlExample.node[3].nic.phy80211p busyTime 0.0058218568766057
scalar tlExample.node[3].nic.mac1609_4 ReceivedUnicastPackets 0
scalar tlExample.node[3].nic.mac1609_4 ReceivedBroadcasts 1829
scalar tlExample.node[3].nic.mac1609_4 SentPackets 135
scalar tlExample.node[3].nic.mac1609_4 SentAcknowledgements 0
scalar tlExample.node[3].nic.mac1609_4 RetriesExceeded 0
scalar tlExample.node[3].nic.mac1609_4 SNIRLostPackets 7803
scalar tlExample.node[3].nic.mac1609_4 RXTXLostPackets 0
scalar tlExample.node[3].nic.mac1609_4 TotalLostPackets 7803
scalar tlExample.node[3].nic.mac1609_4 DroppedPacketsInMac 0
scalar tlExample.node[3].nic.mac1609_4 TooLittleTime 0
scalar tlExample.node[3].nic.mac1609_4 TimesIntoBackoff 149
scalar tlExample.node[3].nic.mac1609_4 SlotsBackoff 196
scalar tlExample.node[3].nic.mac1609_4 NumInternalContention 0
scalar tlExample.node[3].nic.mac1609_4 totalBusyTime 0.478483850657
scalar tlExample.node[3].nic.mac1609_4 retriesExceeded:count 0
attr source org_car2x_veins_modules_mac_sigRetriesExceeded
scalar tlExample.node[3].nic.mac1609_4 sentAcks:count 0
attr source org_car2x_veins_modules_mac_sigSentAck
scalar tlExample.node[3].nic.mac1609_4 sentPackets:count 135
attr source org_car2x_veins_modules_mac_sigSentPacket
scalar tlExample.node[3].nic.mac1609_4 collisions:count 0
attr source org_car2x_veins_modules_mac_sigCollision
scalar tlExample.node[3].nic.mac1609_4 channelBusy:timeavg 0.0058425525826069
attr source org_car2x_veins_modules_mac_sigChannelBusy
scalar tlExample.node[3].veinsmobility startTime 0.1
scalar tlExample.node[3].veinsmobility totalTime 81.8
scalar tlExample.node[3].veinsmobility stopTime 81.954296678931
scalar tlExample.node[3].veinsmobility minSpeed 0.32448451905628
scalar tlExample.node[3].veinsmobility maxSpeed 13.989328773372
scalar tlExample.node[3].veinsmobility totalDistance 1077.2519192047
scalar tlExample.node[3].veinsmobility totalCO2Emission 291.74657214218
scalar tlExample.node[22].appl generatedWSMs 118
scalar tlExample.node[22].appl receivedWSMs 1740
scalar tlExample.node[22].appl generatedBSMs 0
scalar tlExample.node[22].appl receivedBSMs 0
scalar tlExample.node[22].appl generatedWSAs 0
scalar tlExample.node[22].appl receivedWSAs 74
scalar tlExample.node[22].nic.phy80211p busyTime 0.005943773932095
scalar tlExample.node[22].nic.mac1609_4 ReceivedUnicastPackets 0
scalar tlExample.node[22].nic.mac1609_4 ReceivedBroadcasts 1814
scalar tlExample.node[22].nic.mac1609_4 SentPackets 118
scalar tlExample.node[22].nic.mac1609_4 SentAcknowledgements 0
scalar tlExample.node[22].nic.mac1609_4 RetriesExceeded 0
scalar tlExample.node[22].nic.mac1609_4 SNIRLostPackets 7726
scalar tlExample.node[22].nic.mac1609_4 RXTXLostPackets 2
scalar tlExample.node[22].nic.mac1609_4 TotalLostPackets 7728
scalar tlExample.node[22].nic.mac1609_4 DroppedPacketsInMac 0
scalar tlExample.node[22].nic.mac1609_4 TooLittleTime 0
scalar tlExample.node[22].nic.mac1609_4 TimesIntoBackoff 126
scalar tlExample.node[22].nic.mac1609_4 SlotsBackoff 178
scalar tlExample.node[22].nic.mac1609_4 NumInternalContention 0
scalar tlExample.node[22].nic.mac1609_4 totalBusyTime 0.472886
scalar tlExample.node[22].nic.mac1609_4 retriesExceeded:count 0
attr source org_car2x_veins_modules_mac_sigRetriesExceeded
scalar tlExample.node[22].nic.mac1609_4 sentAcks:count 0
attr source org_car2x_veins_modules_mac_sigSentAck
scalar tlExample.node[22].nic.mac1609_4 sentPackets:count 118
attr source org_car2x_veins_modules_mac_sigSentPacket
scalar tlExample.node[22].nic.mac1609_4 collisions:count 0
attr source org_car2x_veins_modules_mac_sigCollision
scalar tlExample.node[22].nic.mac1609_4 channelBusy:timeavg 0.0059597045913398
attr source org_car2x_veins_modules_mac_sigChannelBusy
scalar tlExample.node[22].veinsmobility startTime 2.6
scalar tlExample.node[22].veinsmobility totalTime 79.3
scalar tlExample.node[22].veinsmobility stopTime 81.954296678931
scalar tlExample.node[22].veinsmobility minSpeed 0.34907761537121
scalar tlExample.node[22].veinsmobility maxSpeed 15.298093935359
scalar tlExample.node[22].veinsmobility totalDistance 1054.5556714454
scalar tlExample.node[22].veinsmobility totalCO2Emission 299.54465122465
scalar tlExample.node[35].appl generatedWSMs 114
scalar tlExample.node[35].appl receivedWSMs 1608
scalar tlExample.node[35].appl generatedBSMs 0
scalar tlExample.node[35].appl receivedBSMs 0
scalar tlExample.node[35].appl generatedWSAs 0
scalar tlExample.node[35].appl receivedWSAs 64
scalar tlExample.node[35].nic.phy80211p busyTime 0.0059247695922874
scalar tlExample.node[35].nic.mac1609_4 ReceivedUnicastPackets 0
scalar tlExample.node[35].nic.mac1609_4 ReceivedBroadcasts 1672
scalar tlExample.node[35].nic.mac1609_4 SentPackets 114
scalar tlExample.node[35].nic.mac1609_4 SentAcknowledgements 0
scalar tlExample.node[35].nic.mac1609_4 RetriesExceeded 0
scalar tlExample.node[35].nic.mac1609_4 SNIRLostPackets 7543
scalar tlExample.node[35].nic.mac1609_4 RXTXLostPackets 1
scalar tlExample.node[35].nic.mac1609_4 TotalLostPackets 7544
scalar tlExample.node[35].nic.mac1609_4 DroppedPacketsInMac 0
scalar tlExample.node[35].nic.mac1609_4 TooLittleTime 0
scalar tlExample.node[35].nic.mac1609_4 TimesIntoBackoff 125
scalar tlExample.node[35].nic.mac1609_4 SlotsBackoff 174
scalar tlExample.node[35].nic.mac1609_4 NumInternalContention 0
scalar tlExample.node[35].nic.mac1609_4 totalBusyTime 0.456946
scalar tlExample.node[35].nic.mac1609_4 retriesExceeded:count 0
attr source org_car2x_veins_modules_mac_sigRetriesExceeded
scalar tlExample.node[35].nic.mac1609_4 sentAcks:count 0
attr source org_car2x_veins_modules_mac_sigSentAck
scalar tlExample.node[35].nic.mac1609_4 sentPackets:count 114
attr source org_car2x_veins_modules_mac_sigSentPacket
scalar tlExample.node[35].nic.mac1609_4 collisions:count 0
attr source org_car2x_veins_modules_mac_sigCollision
scalar tlExample.node[35].nic.mac1609_4 channelBusy:timeavg 0.0059456142303783
attr source org_car2x_veins_modules_mac_sigChannelBusy
scalar tlExample.node[35].veinsmobility startTime 5.1
scalar tlExample.node[35].veinsmobility totalTime 76.8
scalar tlExample.node[35].veinsmobility stopTime 81.954296678931
scalar tlExample.node[35].veinsmobility minSpeed 0.33009148751269
scalar tlExample.node[35].veinsmobility maxSpeed 13.394908250019
scalar tlExample.node[35].veinsmobility totalDistance 907.40382871703
scalar tlExample.node[35].veinsmobility totalCO2Emission 258.79882491281
scalar tlExample.node[57].appl generatedWSMs 114
scalar tlExample.node[57].appl receivedWSMs 1585
scalar tlExample.node[57].appl generatedBSMs 0
scalar tlExample.node[57].appl receivedBSMs 0
scalar tlExample.node[57].appl generatedWSAs 0
scalar tlExample.node[57].appl receivedWSAs 61
scalar tlExample.node[57].nic.phy80211p busyTime 0.0060630565520891
scalar tlExample.node[57].nic.mac1609_4 ReceivedUnicastPackets 0
scalar tlExample.node[57].nic.mac1609_4 ReceivedBroadcasts 1646
scalar tlExample.node[57].nic.mac1609_4 SentPackets 114
scalar tlExample.node[57].nic.mac1609_4 SentAcknowledgements 0
scalar tlExample.node[57].nic.mac1609_4 RetriesExceeded 0
scalar tlExample.node[57].nic.mac1609_4 SNIRLostPackets 7472
scalar tlExample.node[57].nic.mac1609_4 RXTXLostPackets 1
scalar tlExample.node[57].nic.mac1609_4 TotalLostPackets 7473
scalar tlExample.node[57].nic.mac1609_4 DroppedPacketsInMac 0
scalar tlExample.node[57].nic.mac1609_4 TooLittleTime 0
scalar tlExample.node[57].nic.mac1609_4 TimesIntoBackoff 123
scalar tlExample.node[57].nic.mac1609_4 SlotsBackoff 175
scalar tlExample.node[57].nic.mac1609_4 NumInternalContention 0
scalar tlExample.node[57].nic.mac1609_4 totalBusyTime 0.451950093057
scalar tlExample.node[57].nic.mac1609_4 retriesExceeded:count 0
attr source org_car2x_veins_modules_mac_sigRetriesExceeded
scalar tlExample.node[57].nic.mac1609_4 sentAcks:count 0
attr source org_car2x_veins_modules_mac_sigSentAck
scalar tlExample.node[57].nic.mac1609_4 sentPackets:count 114
attr source org_car2x_veins_modules_mac_sigSentPacket
scalar tlExample.node[57].nic.mac1609_4 collisions:count 0
attr source org_car2x_veins_modules_mac_sigCollision
scalar tlExample.node[57].nic.mac1609_4 channelBusy:timeavg 0.0060858712999592
attr source org_car2x_veins_modules_mac_sigChannelBusy
scalar tlExample.node[57].veinsmobility startTime 7.7
scalar tlExample.node[57].veinsmobility totalTime 74.2
[...]
scalar tlExample.rsu[4].nic.mac1609_4 totalBusyTime 0.567938
scalar tlExample.rsu[4].nic.mac1609_4 retriesExceeded:count 0
attr source org_car2x_veins_modules_mac_sigRetriesExceeded
scalar tlExample.rsu[4].nic.mac1609_4 sentAcks:count 0
attr source org_car2x_veins_modules_mac_sigSentAck
scalar tlExample.rsu[4].nic.mac1609_4 sentPackets:count 82
attr source org_car2x_veins_modules_mac_sigSentPacket
scalar tlExample.rsu[4].nic.mac1609_4 collisions:count 0
attr source org_car2x_veins_modules_mac_sigCollision
scalar tlExample.rsu[4].nic.mac1609_4 channelBusy:timeavg 0.0069304593118793
attr source org_car2x_veins_modules_mac_sigChannelBusy
scalar tlExample.rsu[5].appl generatedWSMs 0
scalar tlExample.rsu[5].appl receivedWSMs 64
scalar tlExample.rsu[5].appl generatedBSMs 0
scalar tlExample.rsu[5].appl receivedBSMs 0
scalar tlExample.rsu[5].appl generatedWSAs 82
scalar tlExample.rsu[5].appl receivedWSAs 0
scalar tlExample.rsu[5].nic.phy80211p busyTime 0.0097025785373452
scalar tlExample.rsu[5].nic.mac1609_4 ReceivedUnicastPackets 0
scalar tlExample.rsu[5].nic.mac1609_4 ReceivedBroadcasts 64
scalar tlExample.rsu[5].nic.mac1609_4 SentPackets 82
scalar tlExample.rsu[5].nic.mac1609_4 SentAcknowledgements 0
scalar tlExample.rsu[5].nic.mac1609_4 RetriesExceeded 0
scalar tlExample.rsu[5].nic.mac1609_4 SNIRLostPackets 16092
scalar tlExample.rsu[5].nic.mac1609_4 RXTXLostPackets 0
scalar tlExample.rsu[5].nic.mac1609_4 TotalLostPackets 16092
scalar tlExample.rsu[5].nic.mac1609_4 DroppedPacketsInMac 0
scalar tlExample.rsu[5].nic.mac1609_4 TooLittleTime 0
scalar tlExample.rsu[5].nic.mac1609_4 TimesIntoBackoff 82
scalar tlExample.rsu[5].nic.mac1609_4 SlotsBackoff 124
scalar tlExample.rsu[5].nic.mac1609_4 NumInternalContention 0
scalar tlExample.rsu[5].nic.mac1609_4 totalBusyTime 0.782306
scalar tlExample.rsu[5].nic.mac1609_4 retriesExceeded:count 0
attr source org_car2x_veins_modules_mac_sigRetriesExceeded
scalar tlExample.rsu[5].nic.mac1609_4 sentAcks:count 0
attr source org_car2x_veins_modules_mac_sigSentAck
scalar tlExample.rsu[5].nic.mac1609_4 sentPackets:count 82
attr source org_car2x_veins_modules_mac_sigSentPacket
scalar tlExample.rsu[5].nic.mac1609_4 collisions:count 0
attr source org_car2x_veins_modules_mac_sigCollision
scalar tlExample.rsu[5].nic.mac1609_4 channelBusy:timeavg 0.0095461795918057
attr source org_car2x_veins_modules_mac_sigChannelBusy
scalar tlExample.rsu[6].appl generatedWSMs 0
scalar tlExample.rsu[6].appl receivedWSMs 55
scalar tlExample.rsu[6].appl generatedBSMs 0
scalar tlExample.rsu[6].appl receivedBSMs 0
scalar tlExample.rsu[6].appl generatedWSAs 82
scalar tlExample.rsu[6].appl receivedWSAs 0
scalar tlExample.rsu[6].nic.phy80211p busyTime 0.0098378734571888
scalar tlExample.rsu[6].nic.mac1609_4 ReceivedUnicastPackets 0
scalar tlExample.rsu[6].nic.mac1609_4 ReceivedBroadcasts 55
scalar tlExample.rsu[6].nic.mac1609_4 SentPackets 82
scalar tlExample.rsu[6].nic.mac1609_4 SentAcknowledgements 0
scalar tlExample.rsu[6].nic.mac1609_4 RetriesExceeded 0
scalar tlExample.rsu[6].nic.mac1609_4 SNIRLostPackets 16332
scalar tlExample.rsu[6].nic.mac1609_4 RXTXLostPackets 0
scalar tlExample.rsu[6].nic.mac1609_4 TotalLostPackets 16332
scalar tlExample.rsu[6].nic.mac1609_4 DroppedPacketsInMac 0
scalar tlExample.rsu[6].nic.mac1609_4 TooLittleTime 0
scalar tlExample.rsu[6].nic.mac1609_4 TimesIntoBackoff 82
scalar tlExample.rsu[6].nic.mac1609_4 SlotsBackoff 125
scalar tlExample.rsu[6].nic.mac1609_4 NumInternalContention 0
scalar tlExample.rsu[6].nic.mac1609_4 totalBusyTime 0.792866
scalar tlExample.rsu[6].nic.mac1609_4 retriesExceeded:count 0
attr source org_car2x_veins_modules_mac_sigRetriesExceeded
scalar tlExample.rsu[6].nic.mac1609_4 sentAcks:count 0
attr source org_car2x_veins_modules_mac_sigSentAck
scalar tlExample.rsu[6].nic.mac1609_4 sentPackets:count 82
attr source org_car2x_veins_modules_mac_sigSentPacket
scalar tlExample.rsu[6].nic.mac1609_4 collisions:count 0
attr source org_car2x_veins_modules_mac_sigCollision
scalar tlExample.rsu[6].nic.mac1609_4 channelBusy:timeavg 0.009675039166068
attr source org_car2x_veins_modules_mac_sigChannelBusy
scalar tlExample.rsu[7].appl generatedWSMs 0
scalar tlExample.rsu[7].appl receivedWSMs 1009
scalar tlExample.rsu[7].appl generatedBSMs 0
scalar tlExample.rsu[7].appl receivedBSMs 0
scalar tlExample.rsu[7].appl generatedWSAs 81
scalar tlExample.rsu[7].appl receivedWSAs 0
scalar tlExample.rsu[7].nic.phy80211p busyTime 0.007133732137199
scalar tlExample.rsu[7].nic.mac1609_4 ReceivedUnicastPackets 0
scalar tlExample.rsu[7].nic.mac1609_4 ReceivedBroadcasts 1009
scalar tlExample.rsu[7].nic.mac1609_4 SentPackets 81
scalar tlExample.rsu[7].nic.mac1609_4 SentAcknowledgements 0
scalar tlExample.rsu[7].nic.mac1609_4 RetriesExceeded 0
scalar tlExample.rsu[7].nic.mac1609_4 SNIRLostPackets 10788
scalar tlExample.rsu[7].nic.mac1609_4 RXTXLostPackets 0
scalar tlExample.rsu[7].nic.mac1609_4 TotalLostPackets 10788
scalar tlExample.rsu[7].nic.mac1609_4 DroppedPacketsInMac 0
scalar tlExample.rsu[7].nic.mac1609_4 TooLittleTime 0
scalar tlExample.rsu[7].nic.mac1609_4 TimesIntoBackoff 81
scalar tlExample.rsu[7].nic.mac1609_4 SlotsBackoff 140
scalar tlExample.rsu[7].nic.mac1609_4 NumInternalContention 0
scalar tlExample.rsu[7].nic.mac1609_4 totalBusyTime 0.581843147464
scalar tlExample.rsu[7].nic.mac1609_4 retriesExceeded:count 0
attr source org_car2x_veins_modules_mac_sigRetriesExceeded
scalar tlExample.rsu[7].nic.mac1609_4 sentAcks:count 0
attr source org_car2x_veins_modules_mac_sigSentAck
scalar tlExample.rsu[7].nic.mac1609_4 sentPackets:count 81
attr source org_car2x_veins_modules_mac_sigSentPacket
scalar tlExample.rsu[7].nic.mac1609_4 collisions:count 0
attr source org_car2x_veins_modules_mac_sigCollision
scalar tlExample.rsu[7].nic.mac1609_4 channelBusy:timeavg 0.0070978046298648
attr source org_car2x_veins_modules_mac_sigChannelBusy
scalar tlExample.rsu[8].appl generatedWSMs 0
scalar tlExample.rsu[8].appl receivedWSMs 927
scalar tlExample.rsu[8].appl generatedBSMs 0
scalar tlExample.rsu[8].appl receivedBSMs 0
scalar tlExample.rsu[8].appl generatedWSAs 82
scalar tlExample.rsu[8].appl receivedWSAs 0
scalar tlExample.rsu[8].nic.phy80211p busyTime 0.006917416450061
scalar tlExample.rsu[8].nic.mac1609_4 ReceivedUnicastPackets 0
scalar tlExample.rsu[8].nic.mac1609_4 ReceivedBroadcasts 927
scalar tlExample.rsu[8].nic.mac1609_4 SentPackets 82
scalar tlExample.rsu[8].nic.mac1609_4 SentAcknowledgements 0
scalar tlExample.rsu[8].nic.mac1609_4 RetriesExceeded 0
scalar tlExample.rsu[8].nic.mac1609_4 SNIRLostPackets 10501
scalar tlExample.rsu[8].nic.mac1609_4 RXTXLostPackets 0
scalar tlExample.rsu[8].nic.mac1609_4 TotalLostPackets 10501
scalar tlExample.rsu[8].nic.mac1609_4 DroppedPacketsInMac 0
scalar tlExample.rsu[8].nic.mac1609_4 TooLittleTime 0
scalar tlExample.rsu[8].nic.mac1609_4 TimesIntoBackoff 82
scalar tlExample.rsu[8].nic.mac1609_4 SlotsBackoff 116
scalar tlExample.rsu[8].nic.mac1609_4 NumInternalContention 0
scalar tlExample.rsu[8].nic.mac1609_4 totalBusyTime 0.564673567787
scalar tlExample.rsu[8].nic.mac1609_4 retriesExceeded:count 0
attr source org_car2x_veins_modules_mac_sigRetriesExceeded
scalar tlExample.rsu[8].nic.mac1609_4 sentAcks:count 0
attr source org_car2x_veins_modules_mac_sigSentAck
scalar tlExample.rsu[8].nic.mac1609_4 sentPackets:count 82
attr source org_car2x_veins_modules_mac_sigSentPacket
scalar tlExample.rsu[8].nic.mac1609_4 collisions:count 0
attr source org_car2x_veins_modules_mac_sigCollision
scalar tlExample.rsu[8].nic.mac1609_4 channelBusy:timeavg 0.006886547495735
attr source org_car2x_veins_modules_mac_sigChannelBusy
scalar tlExample.rsu[9].appl generatedWSMs 0
scalar tlExample.rsu[9].appl receivedWSMs 45
scalar tlExample.rsu[9].appl generatedBSMs 0
scalar tlExample.rsu[9].appl receivedBSMs 0
scalar tlExample.rsu[9].appl generatedWSAs 82
scalar tlExample.rsu[9].appl receivedWSAs 0
scalar tlExample.rsu[9].nic.phy80211p busyTime 0.0096732939226605
scalar tlExample.rsu[9].nic.mac1609_4 ReceivedUnicastPackets 0
scalar tlExample.rsu[9].nic.mac1609_4 ReceivedBroadcasts 45
scalar tlExample.rsu[9].nic.mac1609_4 SentPackets 82
scalar tlExample.rsu[9].nic.mac1609_4 SentAcknowledgements 0
scalar tlExample.rsu[9].nic.mac1609_4 RetriesExceeded 0
scalar tlExample.rsu[9].nic.mac1609_4 SNIRLostPackets 16061
scalar tlExample.rsu[9].nic.mac1609_4 RXTXLostPackets 0
scalar tlExample.rsu[9].nic.mac1609_4 TotalLostPackets 16061
scalar tlExample.rsu[9].nic.mac1609_4 DroppedPacketsInMac 0
scalar tlExample.rsu[9].nic.mac1609_4 TooLittleTime 0
scalar tlExample.rsu[9].nic.mac1609_4 TimesIntoBackoff 82
scalar tlExample.rsu[9].nic.mac1609_4 SlotsBackoff 91
scalar tlExample.rsu[9].nic.mac1609_4 NumInternalContention 0
scalar tlExample.rsu[9].nic.mac1609_4 totalBusyTime 0.780002
scalar tlExample.rsu[9].nic.mac1609_4 retriesExceeded:count 0
attr source org_car2x_veins_modules_mac_sigRetriesExceeded
scalar tlExample.rsu[9].nic.mac1609_4 sentAcks:count 0
attr source org_car2x_veins_modules_mac_sigSentAck
scalar tlExample.rsu[9].nic.mac1609_4 sentPackets:count 82
attr source org_car2x_veins_modules_mac_sigSentPacket
scalar tlExample.rsu[9].nic.mac1609_4 collisions:count 0
attr source org_car2x_veins_modules_mac_sigCollision
scalar tlExample.rsu[9].nic.mac1609_4 channelBusy:timeavg 0.0095180938664042
attr source org_car2x_veins_modules_mac_sigChannelBusy
scalar tlExample.rsu[10].appl generatedWSMs 0
scalar tlExample.rsu[10].appl receivedWSMs 48
scalar tlExample.rsu[10].appl generatedBSMs 0
scalar tlExample.rsu[10].appl receivedBSMs 0
scalar tlExample.rsu[10].appl generatedWSAs 82
scalar tlExample.rsu[10].appl receivedWSAs 0
scalar tlExample.rsu[10].nic.phy80211p busyTime 0.0096809079224785
scalar tlExample.rsu[10].nic.mac1609_4 ReceivedUnicastPackets 0
scalar tlExample.rsu[10].nic.mac1609_4 ReceivedBroadcasts 48
scalar tlExample.rsu[10].nic.mac1609_4 SentPackets 82
scalar tlExample.rsu[10].nic.mac1609_4 SentAcknowledgements 0
scalar tlExample.rsu[10].nic.mac1609_4 RetriesExceeded 0
scalar tlExample.rsu[10].nic.mac1609_4 SNIRLostPackets 16071
scalar tlExample.rsu[10].nic.mac1609_4 RXTXLostPackets 0
scalar tlExample.rsu[10].nic.mac1609_4 TotalLostPackets 16071
scalar tlExample.rsu[10].nic.mac1609_4 DroppedPacketsInMac 0
scalar tlExample.rsu[10].nic.mac1609_4 TooLittleTime 0
scalar tlExample.rsu[10].nic.mac1609_4 TimesIntoBackoff 82
scalar tlExample.rsu[10].nic.mac1609_4 SlotsBackoff 130
scalar tlExample.rsu[10].nic.mac1609_4 NumInternalContention 0
scalar tlExample.rsu[10].nic.mac1609_4 totalBusyTime 0.780818
scalar tlExample.rsu[10].nic.mac1609_4 retriesExceeded:count 0
attr source org_car2x_veins_modules_mac_sigRetriesExceeded
scalar tlExample.rsu[10].nic.mac1609_4 sentAcks:count 0
attr source org_car2x_veins_modules_mac_sigSentAck
scalar tlExample.rsu[10].nic.mac1609_4 sentPackets:count 82
attr source org_car2x_veins_modules_mac_sigSentPacket
scalar tlExample.rsu[10].nic.mac1609_4 collisions:count 0
attr source org_car2x_veins_modules_mac_sigCollision
scalar tlExample.rsu[10].nic.mac1609_4 channelBusy:timeavg 0.0095280629612913
attr source org_car2x_veins_modules_mac_sigChannelBusy
scalar tlExample.rsu[11].appl generatedWSMs 0
scalar tlExample.rsu[11].appl receivedWSMs 1048
scalar tlExample.rsu[11].appl generatedBSMs 0
scalar tlExample.rsu[11].appl receivedBSMs 0
scalar tlExample.rsu[11].appl generatedWSAs 82
scalar tlExample.rsu[11].appl receivedWSAs 0
scalar tlExample.rsu[11].nic.phy80211p busyTime 0.0071235801374416
scalar tlExample.rsu[11].nic.mac1609_4 ReceivedUnicastPackets 0
scalar tlExample.rsu[11].nic.mac1609_4 ReceivedBroadcasts 1048
scalar tlExample.rsu[11].nic.mac1609_4 SentPackets 82
scalar tlExample.rsu[11].nic.mac1609_4 SentAcknowledgements 0
scalar tlExample.rsu[11].nic.mac1609_4 RetriesExceeded 0
scalar tlExample.rsu[11].nic.mac1609_4 SNIRLostPackets 10732
scalar tlExample.rsu[11].nic.mac1609_4 RXTXLostPackets 0
scalar tlExample.rsu[11].nic.mac1609_4 TotalLostPackets 10732
scalar tlExample.rsu[11].nic.mac1609_4 DroppedPacketsInMac 0
scalar tlExample.rsu[11].nic.mac1609_4 TooLittleTime 0
scalar tlExample.rsu[11].nic.mac1609_4 TimesIntoBackoff 82
scalar tlExample.rsu[11].nic.mac1609_4 SlotsBackoff 129
scalar tlExample.rsu[11].nic.mac1609_4 NumInternalContention 0
scalar tlExample.rsu[11].nic.mac1609_4 totalBusyTime 0.581746
scalar tlExample.rsu[11].nic.mac1609_4 retriesExceeded:count 0
attr source org_car2x_veins_modules_mac_sigRetriesExceeded
scalar tlExample.rsu[11].nic.mac1609_4 sentAcks:count 0
attr source org_car2x_veins_modules_mac_sigSentAck
scalar tlExample.rsu[11].nic.mac1609_4 sentPackets:count 82
attr source org_car2x_veins_modules_mac_sigSentPacket
scalar tlExample.rsu[11].nic.mac1609_4 collisions:count 0
attr source org_car2x_veins_modules_mac_sigCollision
scalar tlExample.rsu[11].nic.mac1609_4 channelBusy:timeavg 0.0070989895486907
attr source org_car2x_veins_modules_mac_sigChannelBusy
scalar tlExample.rsu[12].appl generatedWSMs 0
scalar tlExample.rsu[12].appl receivedWSMs 1850
scalar tlExample.rsu[12].appl generatedBSMs 0
scalar tlExample.rsu[12].appl receivedBSMs 0
scalar tlExample.rsu[12].appl generatedWSAs 82
scalar tlExample.rsu[12].appl receivedWSAs 0
scalar tlExample.rsu[12].nic.phy80211p busyTime 0.0058828886286313
scalar tlExample.rsu[12].nic.mac1609_4 ReceivedUnicastPackets 0
scalar tlExample.rsu[12].nic.mac1609_4 ReceivedBroadcasts 1850
scalar tlExample.rsu[12].nic.mac1609_4 SentPackets 82
scalar tlExample.rsu[12].nic.mac1609_4 SentAcknowledgements 0
scalar tlExample.rsu[12].nic.mac1609_4 RetriesExceeded 0
scalar tlExample.rsu[12].nic.mac1609_4 SNIRLostPackets 7866
scalar tlExample.rsu[12].nic.mac1609_4 RXTXLostPackets 0
scalar tlExample.rsu[12].nic.mac1609_4 TotalLostPackets 7866
scalar tlExample.rsu[12].nic.mac1609_4 DroppedPacketsInMac 0
scalar tlExample.rsu[12].nic.mac1609_4 TooLittleTime 0
scalar tlExample.rsu[12].nic.mac1609_4 TimesIntoBackoff 82
scalar tlExample.rsu[12].nic.mac1609_4 SlotsBackoff 114
scalar tlExample.rsu[12].nic.mac1609_4 NumInternalContention 0
scalar tlExample.rsu[12].nic.mac1609_4 totalBusyTime 0.482411773485
scalar tlExample.rsu[12].nic.mac1609_4 retriesExceeded:count 0
attr source org_car2x_veins_modules_mac_sigRetriesExceeded
scalar tlExample.rsu[12].nic.mac1609_4 sentAcks:count 0
attr source org_car2x_veins_modules_mac_sigSentAck
scalar tlExample.rsu[12].nic.mac1609_4 sentPackets:count 82
attr source org_car2x_veins_modules_mac_sigSentPacket
scalar tlExample.rsu[12].nic.mac1609_4 collisions:count 0
attr source org_car2x_veins_modules_mac_sigCollision
scalar tlExample.rsu[12].nic.mac1609_4 channelBusy:timeavg 0.0058863192119978
attr source org_car2x_veins_modules_mac_sigChannelBusy
scalar tlExample.rsu[13].appl generatedWSMs 0
scalar tlExample.rsu[13].appl receivedWSMs 938
scalar tlExample.rsu[13].appl generatedBSMs 0
scalar tlExample.rsu[13].appl receivedBSMs 0
scalar tlExample.rsu[13].appl generatedWSAs 81
scalar tlExample.rsu[13].appl receivedWSAs 0
scalar tlExample.rsu[13].nic.phy80211p busyTime 0.0070622776773682
scalar tlExample.rsu[13].nic.mac1609_4 ReceivedUnicastPackets 0
scalar tlExample.rsu[13].nic.mac1609_4 ReceivedBroadcasts 938
scalar tlExample.rsu[13].nic.mac1609_4 SentPackets 81
scalar tlExample.rsu[13].nic.mac1609_4 SentAcknowledgements 0
scalar tlExample.rsu[13].nic.mac1609_4 RetriesExceeded 0
scalar tlExample.rsu[13].nic.mac1609_4 SNIRLostPackets 10738
scalar tlExample.rsu[13].nic.mac1609_4 RXTXLostPackets 0
scalar tlExample.rsu[13].nic.mac1609_4 TotalLostPackets 10738
scalar tlExample.rsu[13].nic.mac1609_4 DroppedPacketsInMac 0
scalar tlExample.rsu[13].nic.mac1609_4 TooLittleTime 0
scalar tlExample.rsu[13].nic.mac1609_4 TimesIntoBackoff 81
scalar tlExample.rsu[13].nic.mac1609_4 SlotsBackoff 112
scalar tlExample.rsu[13].nic.mac1609_4 NumInternalContention 0
scalar tlExample.rsu[13].nic.mac1609_4 totalBusyTime 0.576066276222
scalar tlExample.rsu[13].nic.mac1609_4 retriesExceeded:count 0
attr source org_car2x_veins_modules_mac_sigRetriesExceeded
scalar tlExample.rsu[13].nic.mac1609_4 sentAcks:count 0
attr source org_car2x_veins_modules_mac_sigSentAck
scalar tlExample.rsu[13].nic.mac1609_4 sentPackets:count 81
attr source org_car2x_veins_modules_mac_sigSentPacket
scalar tlExample.rsu[13].nic.mac1609_4 collisions:count 0
attr source org_car2x_veins_modules_mac_sigCollision
scalar tlExample.rsu[13].nic.mac1609_4 channelBusy:timeavg 0.0070279448370899
attr source org_car2x_veins_modules_mac_sigChannelBusy
scalar tlExample.rsu[14].appl generatedWSMs 0
scalar tlExample.rsu[14].appl receivedWSMs 1000
scalar tlExample.rsu[14].appl generatedBSMs 0
scalar tlExample.rsu[14].appl receivedBSMs 0
scalar tlExample.rsu[14].appl generatedWSAs 82
scalar tlExample.rsu[14].appl receivedWSAs 0
scalar tlExample.rsu[14].nic.phy80211p busyTime 0.0071587216750633
scalar tlExample.rsu[14].nic.mac1609_4 ReceivedUnicastPackets 0
scalar tlExample.rsu[14].nic.mac1609_4 ReceivedBroadcasts 1000
scalar tlExample.rsu[14].nic.mac1609_4 SentPackets 82
scalar tlExample.rsu[14].nic.mac1609_4 SentAcknowledgements 0
scalar tlExample.rsu[14].nic.mac1609_4 RetriesExceeded 0
scalar tlExample.rsu[14].nic.mac1609_4 SNIRLostPackets 10841
scalar tlExample.rsu[14].nic.mac1609_4 RXTXLostPackets 0
scalar tlExample.rsu[14].nic.mac1609_4 TotalLostPackets 10841
scalar tlExample.rsu[14].nic.mac1609_4 DroppedPacketsInMac 0
scalar tlExample.rsu[14].nic.mac1609_4 TooLittleTime 0
scalar tlExample.rsu[14].nic.mac1609_4 TimesIntoBackoff 82
scalar tlExample.rsu[14].nic.mac1609_4 SlotsBackoff 122
scalar tlExample.rsu[14].nic.mac1609_4 NumInternalContention 0
scalar tlExample.rsu[14].nic.mac1609_4 totalBusyTime 0.584338
scalar tlExample.rsu[14].nic.mac1609_4 retriesExceeded:count 0
attr source org_car2x_veins_modules_mac_sigRetriesExceeded
scalar tlExample.rsu[14].nic.mac1609_4 sentAcks:count 0
attr source org_car2x_veins_modules_mac_sigSentAck
scalar tlExample.rsu[14].nic.mac1609_4 sentPackets:count 82
attr source org_car2x_veins_modules_mac_sigSentPacket
scalar tlExample.rsu[14].nic.mac1609_4 collisions:count 0
attr source org_car2x_veins_modules_mac_sigCollision
scalar tlExample.rsu[14].nic.mac1609_4 channelBusy:timeavg 0.0071300471565178
attr source org_car2x_veins_modules_mac_sigChannelBusy
scalar tlExample.rsu[15].appl generatedWSMs 0
scalar tlExample.rsu[15].appl receivedWSMs 1940
scalar tlExample.rsu[15].appl generatedBSMs 0
scalar tlExample.rsu[15].appl receivedBSMs 0
scalar tlExample.rsu[15].appl generatedWSAs 81
scalar tlExample.rsu[15].appl receivedWSAs 0
scalar tlExample.rsu[15].nic.phy80211p busyTime 0.0060117409332441
scalar tlExample.rsu[15].nic.mac1609_4 ReceivedUnicastPackets 0
scalar tlExample.rsu[15].nic.mac1609_4 ReceivedBroadcasts 1940
scalar tlExample.rsu[15].nic.mac1609_4 SentPackets 81
scalar tlExample.rsu[15].nic.mac1609_4 SentAcknowledgements 0
scalar tlExample.rsu[15].nic.mac1609_4 RetriesExceeded 0
scalar tlExample.rsu[15].nic.mac1609_4 SNIRLostPackets 7997
scalar tlExample.rsu[15].nic.mac1609_4 RXTXLostPackets 0
scalar tlExample.rsu[15].nic.mac1609_4 TotalLostPackets 7997
scalar tlExample.rsu[15].nic.mac1609_4 DroppedPacketsInMac 0
scalar tlExample.rsu[15].nic.mac1609_4 TooLittleTime 0
scalar tlExample.rsu[15].nic.mac1609_4 TimesIntoBackoff 81
scalar tlExample.rsu[15].nic.mac1609_4 SlotsBackoff 133
scalar tlExample.rsu[15].nic.mac1609_4 NumInternalContention 0
scalar tlExample.rsu[15].nic.mac1609_4 totalBusyTime 0.493153
scalar tlExample.rsu[15].nic.mac1609_4 retriesExceeded:count 0
attr source org_car2x_veins_modules_mac_sigRetriesExceeded
scalar tlExample.rsu[15].nic.mac1609_4 sentAcks:count 0
attr source org_car2x_veins_modules_mac_sigSentAck
scalar tlExample.rsu[15].nic.mac1609_4 sentPackets:count 81
attr source org_car2x_veins_modules_mac_sigSentPacket
scalar tlExample.rsu[15].nic.mac1609_4 collisions:count 0
attr source org_car2x_veins_modules_mac_sigCollision
scalar tlExample.rsu[15].nic.mac1609_4 channelBusy:timeavg 0.0060174148273392
attr source org_car2x_veins_modules_mac_sigChannelBusy

